data_C360H360N144O72_2018-02-15_10:33:21
#******************************************
#
# CIF file created by Zeo++
# Zeo++ is an open source package to
# analyze microporous materials
#
#*******************************************

_cell_length_a		43.1484   
_cell_length_b		43.1484   
_cell_length_c		30.051   
_cell_angle_alpha		90   
_cell_angle_beta		90   
_cell_angle_gamma		120   

_symmetry_space_group_name_H-M		'P1'
_symmetry_Int_Tables_number		1
_symmetry_cell_setting		Monoclinic

loop_
_symmetry_equiv_pos_as_xyz
'+x,+y,+z'

loop_
_atom_site_label
_atom_site_type_symbol
_atom_site_fract_x
_atom_site_fract_y
_atom_site_fract_z
1	C	0.190238	0.368161	0.040108
2	N	0.200612	0.343201	0.039868
3	C	0.176232	0.307644	0.040134
4	N	0.140897	0.297268	0.039874
5	C	0.129718	0.321648	0.040122
6	N	0.154679	0.35698	0.03986
7	C	0.186913	0.280133	0.37069
8	H	0.173745	0.2638	0.341313
9	H	0.176936	0.26295	0.066755
10	C	0.091527	0.310967	0.037347
11	H	0.08836	0.324131	0.341303
12	H	0.084321	0.320947	0.066743
13	C	0.217744	0.406355	0.037347
14	H	0.234086	0.409526	0.34131
15	H	0.234918	0.413556	0.066752
16	C	0.307228	0.130141	0.958202
17	N	0.296841	0.155091	0.958438
18	C	0.321212	0.190651	0.958175
19	N	0.356549	0.201038	0.958434
20	C	0.36774	0.176669	0.958185
21	N	0.342789	0.141332	0.958448
22	C	0.310518	0.218152	0.294282
23	H	0.320492	0.235336	0.264885
24	H	0.323681	0.234486	0.990327
25	C	0.405936	0.187362	0.96096
26	H	0.413145	0.177385	0.264898
27	H	0.409108	0.174201	0.99034
28	C	0.27973	0.091944	0.96096
29	H	0.262555	0.084737	0.264889
30	H	0.263387	0.088766	0.99033
31	C	0.233186	0.242631	0.04171
32	C	0.244473	0.219607	0.024258
33	C	0.259942	0.225943	0.314739
34	C	0.264232	0.255636	0.289922
35	C	0.252947	0.278661	0.307375
36	C	0.237479	0.272327	0.016894
37	H	0.275462	0.26044	0.258908
38	O	0.239669	0.191062	0.048829
39	H	0.221957	0.237829	0.072725
40	O	0.257751	0.307207	0.282805
41	H	0.262045	0.199084	0.065446
42	H	0.235376	0.299184	0.266188
43	N	0.27115	0.20248	0.298229
44	H	0.258847	0.191987	0.26829
45	N	0.226279	0.295794	0.033409
46	H	0.238585	0.306284	0.063347
47	C	0.255241	0.490128	0.041712
48	C	0.278267	0.024439	0.024267
49	C	0.271941	0.033577	0.314747
50	C	0.242252	0.008177	0.289921
51	C	0.219224	0.473865	0.307366
52	C	0.22555	0.464726	0.016887
53	H	0.237455	0.014607	0.258905
54	O	0.306808	0.048177	0.048847
55	H	0.260037	0.483697	0.072728
56	O	0.190683	0.450125	0.282787
57	H	0.298784	0.062531	0.065459
58	H	0.198707	0.435773	0.266175
59	N	0.295405	0.06825	0.298245
60	H	0.305907	0.066444	0.268309
61	N	0.20208	0.430057	0.033393
62	H	0.191583	0.431869	0.063328
63	C	0.007752	0.264696	0.041709
64	C	0.473441	0.253409	0.024259
65	C	0.464303	0.237938	0.314742
66	C	0.489705	0.233645	0.289924
67	C	0.024016	0.24493	0.307374
68	C	0.033152	0.260401	0.016891
69	H	0.483276	0.222413	0.258911
70	O	0.449702	0.258216	0.048831
71	H	0.01418	0.275926	0.072722
72	O	0.047754	0.240123	0.282803
73	H	0.435346	0.235841	0.065447
74	H	0.06211	0.262499	0.266187
75	N	0.429632	0.22673	0.298235
76	H	0.431441	0.239031	0.268294
77	N	0.067819	0.271599	0.033403
78	H	0.066007	0.259297	0.063343
79	C	0.190238	0.368161	0.373442
80	N	0.200612	0.343201	0.373202
81	C	0.176232	0.307644	0.373469
82	N	0.140897	0.297268	0.373206
83	C	0.129718	0.321648	0.373455
84	N	0.154679	0.35698	0.373192
85	C	0.186913	0.280133	0.704023
86	H	0.173745	0.2638	0.674647
87	H	0.176936	0.26295	0.40009
88	C	0.091527	0.310967	0.37068
89	H	0.08836	0.324131	0.674633
90	H	0.084321	0.320947	0.400077
91	C	0.217744	0.406355	0.37068
92	H	0.234086	0.409526	0.674643
93	H	0.234918	0.413556	0.400087
94	C	0.307228	0.130141	0.291534
95	N	0.296841	0.155091	0.291773
96	C	0.321212	0.190651	0.291507
97	N	0.356549	0.201038	0.291767
98	C	0.36774	0.176669	0.29152
99	N	0.342789	0.141332	0.291781
100	C	0.310518	0.218152	0.627617
101	H	0.320492	0.235336	0.59822
102	H	0.323681	0.234486	0.323659
103	C	0.405936	0.187362	0.294293
104	H	0.413145	0.177385	0.59823
105	H	0.409108	0.174201	0.323672
106	C	0.27973	0.091944	0.294293
107	H	0.262555	0.084737	0.598223
108	H	0.263387	0.088766	0.323663
109	C	0.233186	0.242631	0.375043
110	C	0.244473	0.219607	0.357592
111	C	0.259942	0.225943	0.648072
112	C	0.264232	0.255636	0.623254
113	C	0.252947	0.278661	0.640708
114	C	0.237479	0.272327	0.350228
115	H	0.275462	0.26044	0.59224
116	O	0.239669	0.191062	0.382161
117	H	0.221957	0.237829	0.406057
118	O	0.257751	0.307207	0.61614
119	H	0.262045	0.199084	0.398779
120	H	0.235376	0.299184	0.599521
121	N	0.27115	0.20248	0.631563
122	H	0.258847	0.191987	0.601624
123	N	0.226279	0.295794	0.36674
124	H	0.238585	0.306284	0.396679
125	C	0.255241	0.490128	0.375046
126	C	0.278267	0.024439	0.357599
127	C	0.271941	0.033577	0.648079
128	C	0.242252	0.008177	0.623254
129	C	0.219224	0.473865	0.640701
130	C	0.22555	0.464726	0.350221
131	H	0.237455	0.014607	0.59224
132	O	0.306808	0.048177	0.38218
133	H	0.260037	0.483697	0.40606
134	O	0.190683	0.450125	0.61612
135	H	0.298784	0.062531	0.398792
136	H	0.198707	0.435773	0.599508
137	N	0.295405	0.06825	0.63158
138	H	0.305907	0.066444	0.601641
139	N	0.20208	0.430057	0.366727
140	H	0.191583	0.431869	0.396663
141	C	0.007752	0.264696	0.375043
142	C	0.473441	0.253409	0.357592
143	C	0.464303	0.237938	0.648075
144	C	0.489705	0.233645	0.623257
145	C	0.024016	0.24493	0.640708
146	C	0.033152	0.260401	0.350225
147	H	0.483276	0.222413	0.592243
148	O	0.449702	0.258216	0.382164
149	H	0.01418	0.275926	0.406057
150	O	0.047754	0.240123	0.616136
151	H	0.435346	0.235841	0.398779
152	H	0.06211	0.262499	0.599521
153	N	0.429632	0.22673	0.63157
154	H	0.431441	0.239031	0.601628
155	N	0.067819	0.271599	0.366737
156	H	0.066007	0.259297	0.396676
157	C	0.190238	0.368161	0.706775
158	N	0.200612	0.343201	0.706536
159	C	0.176232	0.307644	0.706802
160	N	0.140897	0.297268	0.706539
161	C	0.129718	0.321648	0.706789
162	N	0.154679	0.35698	0.706526
163	C	0.186913	0.280133	0.037358
164	H	0.173745	0.2638	0.007982
165	H	0.176936	0.26295	0.73342
166	C	0.091527	0.310967	0.704014
167	H	0.08836	0.324131	0.007969
168	H	0.084321	0.320947	0.73341
169	C	0.217744	0.406355	0.704014
170	H	0.234086	0.409526	0.007978
171	H	0.234918	0.413556	0.733417
172	C	0.307228	0.130141	0.624868
173	N	0.296841	0.155091	0.625108
174	C	0.321212	0.190651	0.624841
175	N	0.356549	0.201038	0.625101
176	C	0.36774	0.176669	0.624851
177	N	0.342789	0.141332	0.625114
178	C	0.310518	0.218152	0.960947
179	H	0.320492	0.235336	0.93155
180	H	0.323681	0.234486	0.656993
181	C	0.405936	0.187362	0.627627
182	H	0.413145	0.177385	0.931563
183	H	0.409108	0.174201	0.657007
184	C	0.27973	0.091944	0.627627
185	H	0.262555	0.084737	0.931557
186	H	0.263387	0.088766	0.656997
187	C	0.233186	0.242631	0.708376
188	C	0.244473	0.219607	0.690926
189	C	0.259942	0.225943	0.981405
190	C	0.264232	0.255636	0.956588
191	C	0.252947	0.278661	0.974041
192	C	0.237479	0.272327	0.683562
193	H	0.275462	0.26044	0.925574
194	O	0.239669	0.191062	0.715494
195	H	0.221957	0.237829	0.73939
196	O	0.257751	0.307207	0.949473
197	H	0.262045	0.199084	0.732112
198	H	0.235376	0.299184	0.932855
199	N	0.27115	0.20248	0.964897
200	H	0.258847	0.191987	0.934958
201	N	0.226279	0.295794	0.700074
202	H	0.238585	0.306284	0.730013
203	C	0.255241	0.490128	0.708379
204	C	0.278267	0.024439	0.690932
205	C	0.271941	0.033577	0.981412
206	C	0.242252	0.008177	0.956588
207	C	0.219224	0.473865	0.974031
208	C	0.22555	0.464726	0.683552
209	H	0.237455	0.014607	0.92557
210	O	0.306808	0.048177	0.715514
211	H	0.260037	0.483697	0.739393
212	O	0.190683	0.450125	0.949453
213	H	0.298784	0.062531	0.732126
214	H	0.198707	0.435773	0.932841
215	N	0.295405	0.06825	0.964913
216	H	0.305907	0.066444	0.934974
217	N	0.20208	0.430057	0.70006
218	H	0.191583	0.431869	0.729996
219	C	0.007752	0.264696	0.708376
220	C	0.473441	0.253409	0.690926
221	C	0.464303	0.237938	0.981409
222	C	0.489705	0.233645	0.956591
223	C	0.024016	0.24493	0.974041
224	C	0.033152	0.260401	0.683558
225	H	0.483276	0.222413	0.925577
226	O	0.449702	0.258216	0.715497
227	H	0.01418	0.275926	0.73939
228	O	0.047754	0.240123	0.94947
229	H	0.435346	0.235841	0.732112
230	H	0.06211	0.262499	0.932855
231	N	0.429632	0.22673	0.9649
232	H	0.431441	0.239031	0.934961
233	N	0.067819	0.271599	0.70007
234	H	0.066007	0.259297	0.730009
235	C	0.190239	0.868161	0.040108
236	N	0.200612	0.843201	0.039868
237	C	0.176232	0.807644	0.040134
238	N	0.140898	0.797268	0.039874
239	C	0.129717	0.821648	0.040122
240	N	0.154679	0.856981	0.03986
241	C	0.186913	0.780133	0.37069
242	H	0.173745	0.763801	0.341313
243	H	0.176936	0.76295	0.066755
244	C	0.091528	0.810967	0.037347
245	H	0.08836	0.824131	0.341303
246	H	0.084322	0.820947	0.066743
247	C	0.217743	0.906355	0.037347
248	H	0.234086	0.909526	0.34131
249	H	0.234918	0.913556	0.066752
250	C	0.307228	0.630142	0.958202
251	N	0.296841	0.655092	0.958438
252	C	0.321212	0.690652	0.958175
253	N	0.356549	0.701038	0.958434
254	C	0.367741	0.676669	0.958185
255	N	0.342788	0.641331	0.958448
256	C	0.310518	0.718152	0.294282
257	H	0.320491	0.735335	0.264885
258	H	0.323681	0.734487	0.990327
259	C	0.405935	0.687363	0.96096
260	H	0.413145	0.677386	0.264898
261	H	0.409107	0.674202	0.99034
262	C	0.279731	0.591943	0.96096
263	H	0.262555	0.584737	0.264889
264	H	0.263388	0.588767	0.99033
265	C	0.233187	0.742633	0.04171
266	C	0.244474	0.719608	0.024258
267	C	0.259942	0.725942	0.314739
268	C	0.264232	0.755636	0.289922
269	C	0.252947	0.778661	0.307375
270	C	0.237479	0.772327	0.016894
271	H	0.275463	0.76044	0.258908
272	O	0.239669	0.691061	0.048829
273	H	0.221958	0.737829	0.072725
274	O	0.257752	0.807207	0.282805
275	H	0.262045	0.699084	0.065446
276	H	0.235376	0.799184	0.266188
277	N	0.27115	0.70248	0.298229
278	H	0.258847	0.691987	0.26829
279	N	0.226279	0.795794	0.033409
280	H	0.238585	0.806284	0.063347
281	C	0.255241	0.990128	0.041712
282	C	0.278267	0.524438	0.024267
283	C	0.271941	0.533577	0.314747
284	C	0.242252	0.508176	0.289921
285	C	0.219224	0.973865	0.307366
286	C	0.225549	0.964726	0.016887
287	H	0.237455	0.514606	0.258906
288	O	0.306808	0.548178	0.048847
289	H	0.260037	0.983697	0.072728
290	O	0.190684	0.950125	0.282787
291	H	0.298783	0.56253	0.065459
292	H	0.198709	0.935773	0.266175
293	N	0.295405	0.568249	0.298245
294	H	0.305906	0.566445	0.268309
295	N	0.20208	0.930057	0.033393
296	H	0.191584	0.931869	0.063328
297	C	0.007753	0.764697	0.041709
298	C	0.47344	0.75341	0.024259
299	C	0.464304	0.737939	0.314742
300	C	0.489704	0.733644	0.289924
301	C	0.024017	0.744932	0.307374
302	C	0.033152	0.760402	0.016891
303	H	0.483275	0.722412	0.258911
304	O	0.449701	0.758216	0.048831
305	H	0.014181	0.775926	0.072722
306	O	0.047755	0.740123	0.282803
307	H	0.435346	0.735841	0.065447
308	H	0.062111	0.762498	0.266187
309	N	0.429633	0.726731	0.298235
310	H	0.431441	0.739031	0.268294
311	N	0.067822	0.771602	0.033403
312	H	0.066008	0.759297	0.063343
313	C	0.190239	0.868161	0.373442
314	N	0.200612	0.843201	0.373202
315	C	0.176232	0.807644	0.373469
316	N	0.140898	0.797268	0.373206
317	C	0.129717	0.821648	0.373455
318	N	0.154679	0.856981	0.373192
319	C	0.186913	0.780133	0.704023
320	H	0.173745	0.763801	0.674647
321	H	0.176936	0.76295	0.40009
322	C	0.091528	0.810967	0.37068
323	H	0.08836	0.824131	0.674633
324	H	0.084322	0.820947	0.400077
325	C	0.217743	0.906355	0.37068
326	H	0.234086	0.909526	0.674643
327	H	0.234918	0.913556	0.400087
328	C	0.307228	0.630142	0.291534
329	N	0.296841	0.655092	0.291773
330	C	0.321212	0.690652	0.291507
331	N	0.356549	0.701038	0.291767
332	C	0.367741	0.676669	0.29152
333	N	0.342788	0.641331	0.291781
334	C	0.310518	0.718152	0.627617
335	H	0.320491	0.735335	0.59822
336	H	0.323681	0.734487	0.323659
337	C	0.405935	0.687363	0.294293
338	H	0.413145	0.677386	0.59823
339	H	0.409107	0.674202	0.323672
340	C	0.279731	0.591943	0.294293
341	H	0.262555	0.584737	0.598223
342	H	0.263388	0.588767	0.323663
343	C	0.233187	0.742633	0.375043
344	C	0.244474	0.719608	0.357592
345	C	0.259942	0.725942	0.648072
346	C	0.264232	0.755636	0.623254
347	C	0.252947	0.778661	0.640708
348	C	0.237479	0.772327	0.350228
349	H	0.275463	0.76044	0.59224
350	O	0.239669	0.691061	0.382161
351	H	0.221958	0.737829	0.406057
352	O	0.257752	0.807207	0.61614
353	H	0.262045	0.699084	0.398779
354	H	0.235376	0.799184	0.599521
355	N	0.27115	0.70248	0.631563
356	H	0.258847	0.691987	0.601624
357	N	0.226279	0.795794	0.36674
358	H	0.238585	0.806284	0.396679
359	C	0.255241	0.990128	0.375046
360	C	0.278267	0.524438	0.357599
361	C	0.271941	0.533577	0.648079
362	C	0.242252	0.508176	0.623254
363	C	0.219224	0.973865	0.640701
364	C	0.225549	0.964726	0.350221
365	H	0.237455	0.514606	0.59224
366	O	0.306808	0.548178	0.38218
367	H	0.260037	0.983697	0.40606
368	O	0.190684	0.950125	0.61612
369	H	0.298783	0.56253	0.398792
370	H	0.198709	0.935773	0.599508
371	N	0.295405	0.568249	0.63158
372	H	0.305906	0.566445	0.601644
373	N	0.20208	0.930057	0.366727
374	H	0.191584	0.931869	0.396663
375	C	0.007753	0.764697	0.375043
376	C	0.47344	0.75341	0.357592
377	C	0.464304	0.737939	0.648075
378	C	0.489704	0.733644	0.623257
379	C	0.024017	0.744932	0.640708
380	C	0.033152	0.760402	0.350225
381	H	0.483275	0.722412	0.592243
382	O	0.449701	0.758216	0.382164
383	H	0.014181	0.775926	0.406057
384	O	0.047755	0.740123	0.616136
385	H	0.435346	0.735841	0.398779
386	H	0.062111	0.762498	0.599521
387	N	0.429633	0.726731	0.63157
388	H	0.431441	0.739031	0.601628
389	N	0.067822	0.771602	0.366737
390	H	0.066008	0.759297	0.396676
391	C	0.190239	0.868161	0.706775
392	N	0.200612	0.843201	0.706536
393	C	0.176232	0.807644	0.706802
394	N	0.140898	0.797268	0.706539
395	C	0.129717	0.821648	0.706789
396	N	0.154679	0.856981	0.706526
397	C	0.186913	0.780133	0.037358
398	H	0.173745	0.763801	0.007982
399	H	0.176936	0.76295	0.73342
400	C	0.091528	0.810967	0.704014
401	H	0.08836	0.824131	0.007969
402	H	0.084322	0.820947	0.73341
403	C	0.217743	0.906355	0.704014
404	H	0.234086	0.909526	0.007978
405	H	0.234918	0.913556	0.733417
406	C	0.307228	0.630142	0.624868
407	N	0.296841	0.655092	0.625108
408	C	0.321212	0.690652	0.624841
409	N	0.356549	0.701038	0.625101
410	C	0.367741	0.676669	0.624851
411	N	0.342788	0.641331	0.625114
412	C	0.310518	0.718152	0.960947
413	H	0.320491	0.735335	0.93155
414	H	0.323681	0.734487	0.656993
415	C	0.405935	0.687363	0.627627
416	H	0.413145	0.677386	0.931563
417	H	0.409107	0.674202	0.657007
418	C	0.279731	0.591943	0.627627
419	H	0.262555	0.584737	0.931557
420	H	0.263388	0.588767	0.656997
421	C	0.233187	0.742633	0.708376
422	C	0.244474	0.719608	0.690926
423	C	0.259942	0.725942	0.981405
424	C	0.264232	0.755636	0.956588
425	C	0.252947	0.778661	0.974041
426	C	0.237479	0.772327	0.683562
427	H	0.275463	0.76044	0.925574
428	O	0.239669	0.691061	0.715494
429	H	0.221958	0.737829	0.73939
430	O	0.257752	0.807207	0.949473
431	H	0.262045	0.699084	0.732112
432	H	0.235376	0.799184	0.932855
433	N	0.27115	0.70248	0.964897
434	H	0.258847	0.691987	0.934958
435	N	0.226279	0.795794	0.700074
436	H	0.238585	0.806284	0.730013
437	C	0.255241	0.990128	0.708379
438	C	0.278267	0.524438	0.690932
439	C	0.271941	0.533577	0.981412
440	C	0.242252	0.508176	0.956588
441	C	0.219224	0.973865	0.974031
442	C	0.225549	0.964726	0.683552
443	H	0.237455	0.514606	0.92557
444	O	0.306808	0.548178	0.715514
445	H	0.260037	0.983697	0.739393
446	O	0.190684	0.950125	0.949453
447	H	0.298783	0.56253	0.732126
448	H	0.198709	0.935773	0.932841
449	N	0.295405	0.568249	0.964913
450	H	0.305906	0.566445	0.934974
451	N	0.20208	0.930057	0.70006
452	H	0.191584	0.931869	0.729996
453	C	0.007753	0.764697	0.708376
454	C	0.47344	0.75341	0.690926
455	C	0.464304	0.737939	0.981409
456	C	0.489704	0.733644	0.956591
457	C	0.024017	0.744932	0.974041
458	C	0.033152	0.760402	0.683558
459	H	0.483275	0.722412	0.925577
460	O	0.449701	0.758216	0.715497
461	H	0.014181	0.775926	0.73939
462	O	0.047755	0.740123	0.94947
463	H	0.435346	0.735841	0.732112
464	H	0.062111	0.762498	0.932855
465	N	0.429633	0.726731	0.9649
466	H	0.431441	0.739031	0.934961
467	N	0.067822	0.771602	0.70007
468	H	0.066008	0.759297	0.730009
469	C	0.690238	0.368161	0.040108
470	N	0.700612	0.343201	0.039868
471	C	0.676231	0.307644	0.040134
472	N	0.640898	0.297268	0.039874
473	C	0.629717	0.321648	0.040122
474	N	0.654679	0.35698	0.03986
475	C	0.686912	0.280133	0.37069
476	H	0.673744	0.2638	0.341313
477	H	0.676936	0.26295	0.066755
478	C	0.591528	0.310967	0.037347
479	H	0.588359	0.324131	0.341303
480	H	0.584322	0.320947	0.066743
481	C	0.717743	0.406355	0.037347
482	H	0.734085	0.409526	0.34131
483	H	0.734918	0.413556	0.066752
484	C	0.807228	0.130141	0.958202
485	N	0.79684	0.155091	0.958438
486	C	0.821211	0.190651	0.958175
487	N	0.856549	0.201038	0.958434
488	C	0.86774	0.176669	0.958185
489	N	0.842787	0.141332	0.958448
490	C	0.810518	0.218152	0.294282
491	H	0.820491	0.235336	0.264885
492	H	0.823682	0.234486	0.990327
493	C	0.905936	0.187362	0.96096
494	H	0.913145	0.177385	0.264898
495	H	0.909106	0.174201	0.99034
496	C	0.77973	0.091944	0.96096
497	H	0.762555	0.084737	0.264889
498	H	0.763387	0.088766	0.99033
499	C	0.733185	0.242631	0.04171
500	C	0.744474	0.219607	0.024258
501	C	0.759941	0.225943	0.314739
502	C	0.764233	0.255636	0.289922
503	C	0.752945	0.278661	0.307375
504	C	0.737479	0.272327	0.016894
505	H	0.775463	0.26044	0.258908
506	O	0.739669	0.191062	0.048829
507	H	0.721956	0.237829	0.072725
508	O	0.757751	0.307207	0.282805
509	H	0.762044	0.199084	0.065446
510	H	0.735375	0.299184	0.266188
511	N	0.771149	0.20248	0.298229
512	H	0.758845	0.191987	0.26829
513	N	0.72628	0.295794	0.033409
514	H	0.738584	0.306284	0.063347
515	C	0.75524	0.490128	0.041712
516	C	0.778267	0.024439	0.024267
517	C	0.771941	0.033577	0.314747
518	C	0.742252	0.008177	0.289921
519	C	0.719224	0.473865	0.307366
520	C	0.725549	0.464726	0.016887
521	H	0.737456	0.014607	0.258905
522	O	0.806808	0.048177	0.048847
523	H	0.760037	0.483697	0.072728
524	O	0.690684	0.450125	0.282787
525	H	0.798784	0.062531	0.065459
526	H	0.698706	0.435773	0.266175
527	N	0.795405	0.06825	0.298245
528	H	0.805907	0.066444	0.268309
529	N	0.70208	0.430057	0.033393
530	H	0.691584	0.431869	0.063328
531	C	0.507752	0.264696	0.041709
532	C	0.973441	0.253409	0.024259
533	C	0.964303	0.237938	0.314742
534	C	0.989705	0.233645	0.289924
535	C	0.524016	0.24493	0.307374
536	C	0.533152	0.260401	0.016891
537	H	0.983276	0.222413	0.258911
538	O	0.949702	0.258216	0.048831
539	H	0.514181	0.275926	0.072722
540	O	0.547755	0.240123	0.282803
541	H	0.935346	0.235841	0.065447
542	H	0.562111	0.262499	0.266187
543	N	0.929632	0.22673	0.298235
544	H	0.931441	0.239031	0.268294
545	N	0.56782	0.271599	0.033403
546	H	0.566007	0.259297	0.063343
547	C	0.690238	0.368161	0.373442
548	N	0.700612	0.343201	0.373202
549	C	0.676231	0.307644	0.373469
550	N	0.640898	0.297268	0.373206
551	C	0.629717	0.321648	0.373455
552	N	0.654679	0.35698	0.373192
553	C	0.686912	0.280133	0.704023
554	H	0.673744	0.2638	0.674647
555	H	0.676936	0.26295	0.40009
556	C	0.591528	0.310967	0.37068
557	H	0.588359	0.324131	0.674633
558	H	0.584322	0.320947	0.400077
559	C	0.717743	0.406355	0.37068
560	H	0.734085	0.409526	0.674643
561	H	0.734918	0.413556	0.400087
562	C	0.807228	0.130141	0.291534
563	N	0.79684	0.155091	0.291773
564	C	0.821211	0.190651	0.291507
565	N	0.856549	0.201038	0.291767
566	C	0.86774	0.176669	0.29152
567	N	0.842787	0.141332	0.291781
568	C	0.810518	0.218152	0.627617
569	H	0.820491	0.235336	0.59822
570	H	0.823682	0.234486	0.323659
571	C	0.905936	0.187362	0.294293
572	H	0.913145	0.177385	0.59823
573	H	0.909106	0.174201	0.323672
574	C	0.77973	0.091944	0.294293
575	H	0.762555	0.084737	0.598223
576	H	0.763387	0.088766	0.323663
577	C	0.733185	0.242631	0.375043
578	C	0.744474	0.219607	0.357592
579	C	0.759941	0.225943	0.648072
580	C	0.764233	0.255636	0.623254
581	C	0.752945	0.278661	0.640708
582	C	0.737479	0.272327	0.350228
583	H	0.775463	0.26044	0.59224
584	O	0.739669	0.191062	0.382161
585	H	0.721956	0.237829	0.406057
586	O	0.757751	0.307207	0.61614
587	H	0.762044	0.199084	0.398779
588	H	0.735375	0.299184	0.599521
589	N	0.771149	0.20248	0.631563
590	H	0.758845	0.191987	0.601624
591	N	0.72628	0.295794	0.36674
592	H	0.738584	0.306284	0.396679
593	C	0.75524	0.490128	0.375046
594	C	0.778267	0.024439	0.357599
595	C	0.771941	0.033577	0.648079
596	C	0.742252	0.008177	0.623254
597	C	0.719224	0.473865	0.640701
598	C	0.725549	0.464726	0.350221
599	H	0.737456	0.014607	0.59224
600	O	0.806808	0.048177	0.38218
601	H	0.760037	0.483697	0.40606
602	O	0.690684	0.450125	0.61612
603	H	0.798784	0.062531	0.398792
604	H	0.698706	0.435773	0.599508
605	N	0.795405	0.06825	0.63158
606	H	0.805907	0.066444	0.601641
607	N	0.70208	0.430057	0.366727
608	H	0.691584	0.431869	0.396663
609	C	0.507752	0.264696	0.375043
610	C	0.973441	0.253409	0.357592
611	C	0.964303	0.237938	0.648075
612	C	0.989705	0.233645	0.623257
613	C	0.524016	0.24493	0.640708
614	C	0.533152	0.260401	0.350225
615	H	0.983276	0.222413	0.592243
616	O	0.949702	0.258216	0.382164
617	H	0.514181	0.275926	0.406057
618	O	0.547755	0.240123	0.616136
619	H	0.935346	0.235841	0.398779
620	H	0.562111	0.262499	0.599521
621	N	0.929632	0.22673	0.63157
622	H	0.931441	0.239031	0.601628
623	N	0.56782	0.271599	0.366737
624	H	0.566007	0.259297	0.396676
625	C	0.690238	0.368161	0.706775
626	N	0.700612	0.343201	0.706536
627	C	0.676231	0.307644	0.706802
628	N	0.640898	0.297268	0.706539
629	C	0.629717	0.321648	0.706789
630	N	0.654679	0.35698	0.706526
631	C	0.686912	0.280133	0.037358
632	H	0.673744	0.2638	0.007982
633	H	0.676936	0.26295	0.73342
634	C	0.591528	0.310967	0.704014
635	H	0.588359	0.324131	0.007969
636	H	0.584322	0.320947	0.73341
637	C	0.717743	0.406355	0.704014
638	H	0.734085	0.409526	0.007978
639	H	0.734918	0.413556	0.733417
640	C	0.807228	0.130141	0.624868
641	N	0.79684	0.155091	0.625108
642	C	0.821211	0.190651	0.624841
643	N	0.856549	0.201038	0.625101
644	C	0.86774	0.176669	0.624851
645	N	0.842787	0.141332	0.625114
646	C	0.810518	0.218152	0.960947
647	H	0.820491	0.235336	0.93155
648	H	0.823682	0.234486	0.656993
649	C	0.905936	0.187362	0.627627
650	H	0.913145	0.177385	0.931563
651	H	0.909106	0.174201	0.657007
652	C	0.77973	0.091944	0.627627
653	H	0.762555	0.084737	0.931557
654	H	0.763387	0.088766	0.656997
655	C	0.733185	0.242631	0.708376
656	C	0.744474	0.219607	0.690926
657	C	0.759941	0.225943	0.981405
658	C	0.764233	0.255636	0.956588
659	C	0.752945	0.278661	0.974041
660	C	0.737479	0.272327	0.683562
661	H	0.775463	0.26044	0.925574
662	O	0.739669	0.191062	0.715494
663	H	0.721956	0.237829	0.73939
664	O	0.757751	0.307207	0.949473
665	H	0.762044	0.199084	0.732112
666	H	0.735375	0.299184	0.932855
667	N	0.771149	0.20248	0.964897
668	H	0.758845	0.191987	0.934958
669	N	0.72628	0.295794	0.700074
670	H	0.738584	0.306284	0.730013
671	C	0.75524	0.490128	0.708379
672	C	0.778267	0.024439	0.690932
673	C	0.771941	0.033577	0.981412
674	C	0.742252	0.008177	0.956588
675	C	0.719224	0.473865	0.974031
676	C	0.725549	0.464726	0.683552
677	H	0.737456	0.014607	0.92557
678	O	0.806808	0.048177	0.715514
679	H	0.760037	0.483697	0.739393
680	O	0.690684	0.450125	0.949453
681	H	0.798784	0.062531	0.732126
682	H	0.698706	0.435773	0.932841
683	N	0.795405	0.06825	0.964913
684	H	0.805907	0.066444	0.934974
685	N	0.70208	0.430057	0.70006
686	H	0.691584	0.431869	0.729996
687	C	0.507752	0.264696	0.708376
688	C	0.973441	0.253409	0.690926
689	C	0.964303	0.237938	0.981409
690	C	0.989705	0.233645	0.956591
691	C	0.524016	0.24493	0.974041
692	C	0.533152	0.260401	0.683558
693	H	0.983276	0.222413	0.925577
694	O	0.949702	0.258216	0.715497
695	H	0.514181	0.275926	0.73939
696	O	0.547755	0.240123	0.94947
697	H	0.935346	0.235841	0.732112
698	H	0.562111	0.262499	0.932855
699	N	0.929632	0.22673	0.9649
700	H	0.931441	0.239031	0.934961
701	N	0.56782	0.271599	0.70007
702	H	0.566007	0.259297	0.730009
703	C	0.690239	0.868161	0.040108
704	N	0.700612	0.843201	0.039868
705	C	0.676231	0.807644	0.040134
706	N	0.640898	0.797268	0.039874
707	C	0.629718	0.821648	0.040122
708	N	0.654679	0.856981	0.03986
709	C	0.686912	0.780133	0.37069
710	H	0.673744	0.763801	0.341313
711	H	0.676937	0.76295	0.066755
712	C	0.591527	0.810967	0.037347
713	H	0.58836	0.824131	0.341303
714	H	0.584321	0.820947	0.066743
715	C	0.717743	0.906355	0.037347
716	H	0.734085	0.909526	0.34131
717	H	0.734918	0.913556	0.066752
718	C	0.807228	0.630142	0.958202
719	N	0.79684	0.655092	0.958438
720	C	0.821212	0.690652	0.958175
721	N	0.856549	0.701038	0.958434
722	C	0.86774	0.676669	0.958185
723	N	0.842789	0.641331	0.958448
724	C	0.810518	0.718152	0.294282
725	H	0.820491	0.735335	0.264885
726	H	0.823682	0.734487	0.990327
727	C	0.905936	0.687363	0.96096
728	H	0.913146	0.677386	0.264898
729	H	0.909106	0.674202	0.99034
730	C	0.77973	0.591943	0.96096
731	H	0.762555	0.584737	0.264889
732	H	0.763388	0.588767	0.99033
733	C	0.733186	0.742633	0.04171
734	C	0.744474	0.719608	0.024258
735	C	0.75994	0.725942	0.314739
736	C	0.764233	0.755636	0.289922
737	C	0.752948	0.778661	0.307375
738	C	0.737479	0.772327	0.016894
739	H	0.775463	0.76044	0.258908
740	O	0.739668	0.691061	0.048829
741	H	0.721957	0.737829	0.072725
742	O	0.757751	0.807207	0.282805
743	H	0.762044	0.699084	0.065446
744	H	0.735375	0.799184	0.266188
745	N	0.771149	0.70248	0.298229
746	H	0.758848	0.691987	0.26829
747	N	0.72628	0.795794	0.033409
748	H	0.738584	0.806284	0.063347
749	C	0.755241	0.990128	0.041712
750	C	0.778266	0.524438	0.024267
751	C	0.771941	0.533577	0.314747
752	C	0.742252	0.508176	0.289921
753	C	0.719224	0.973865	0.307366
754	C	0.725549	0.964726	0.016887
755	H	0.737455	0.514606	0.258906
756	O	0.806809	0.548178	0.048847
757	H	0.760037	0.983697	0.072728
758	O	0.690683	0.950125	0.282787
759	H	0.798784	0.56253	0.065459
760	H	0.698707	0.935773	0.266175
761	N	0.795404	0.568249	0.298245
762	H	0.805907	0.566445	0.268309
763	N	0.70208	0.930057	0.033393
764	H	0.691583	0.931869	0.063328
765	C	0.507753	0.764697	0.041709
766	C	0.973441	0.75341	0.024259
767	C	0.964303	0.737939	0.314742
768	C	0.989705	0.733644	0.289924
769	C	0.524016	0.744932	0.307374
770	C	0.533153	0.760402	0.016891
771	H	0.983275	0.722412	0.258911
772	O	0.949701	0.758216	0.048831
773	H	0.51418	0.775926	0.072722
774	O	0.547754	0.740123	0.282803
775	H	0.935346	0.735841	0.065447
776	H	0.56211	0.762498	0.266187
777	N	0.929632	0.726731	0.298235
778	H	0.931441	0.739031	0.268294
779	N	0.567821	0.771602	0.033403
780	H	0.566007	0.759297	0.063343
781	C	0.690239	0.868161	0.373442
782	N	0.700612	0.843201	0.373202
783	C	0.676231	0.807644	0.373469
784	N	0.640898	0.797268	0.373206
785	C	0.629718	0.821648	0.373455
786	N	0.654679	0.856981	0.373192
787	C	0.686912	0.780133	0.704023
788	H	0.673744	0.763801	0.674647
789	H	0.676937	0.76295	0.40009
790	C	0.591527	0.810967	0.37068
791	H	0.58836	0.824131	0.674633
792	H	0.584321	0.820947	0.400077
793	C	0.717743	0.906355	0.37068
794	H	0.734085	0.909526	0.674643
795	H	0.734918	0.913556	0.400087
796	C	0.807228	0.630142	0.291534
797	N	0.79684	0.655092	0.291773
798	C	0.821212	0.690652	0.291507
799	N	0.856549	0.701038	0.291767
800	C	0.86774	0.676669	0.29152
801	N	0.842789	0.641331	0.291781
802	C	0.810518	0.718152	0.627617
803	H	0.820491	0.735335	0.59822
804	H	0.823682	0.734487	0.323659
805	C	0.905936	0.687363	0.294293
806	H	0.913146	0.677386	0.59823
807	H	0.909106	0.674202	0.323672
808	C	0.77973	0.591943	0.294293
809	H	0.762555	0.584737	0.598223
810	H	0.763388	0.588767	0.323663
811	C	0.733186	0.742633	0.375043
812	C	0.744474	0.719608	0.357592
813	C	0.75994	0.725942	0.648072
814	C	0.764233	0.755636	0.623254
815	C	0.752948	0.778661	0.640708
816	C	0.737479	0.772327	0.350228
817	H	0.775463	0.76044	0.59224
818	O	0.739668	0.691061	0.382161
819	H	0.721957	0.737829	0.406057
820	O	0.757751	0.807207	0.61614
821	H	0.762044	0.699084	0.398779
822	H	0.735375	0.799184	0.599521
823	N	0.771149	0.70248	0.631563
824	H	0.758848	0.691987	0.601624
825	N	0.72628	0.795794	0.36674
826	H	0.738584	0.806284	0.396679
827	C	0.755241	0.990128	0.375046
828	C	0.778266	0.524438	0.357599
829	C	0.771941	0.533577	0.648079
830	C	0.742252	0.508176	0.623254
831	C	0.719224	0.973865	0.640701
832	C	0.725549	0.964726	0.350221
833	H	0.737455	0.514606	0.59224
834	O	0.806809	0.548178	0.38218
835	H	0.760037	0.983697	0.40606
836	O	0.690683	0.950125	0.61612
837	H	0.798784	0.56253	0.398792
838	H	0.698708	0.935773	0.599508
839	N	0.795404	0.568249	0.63158
840	H	0.805907	0.566445	0.601644
841	N	0.70208	0.930057	0.366727
842	H	0.691583	0.931869	0.396663
843	C	0.507753	0.764697	0.375043
844	C	0.973441	0.75341	0.357592
845	C	0.964303	0.737939	0.648075
846	C	0.989705	0.733644	0.623257
847	C	0.524016	0.744932	0.640708
848	C	0.533153	0.760402	0.350225
849	H	0.983275	0.722412	0.592243
850	O	0.949701	0.758216	0.382164
851	H	0.51418	0.775926	0.406057
852	O	0.547754	0.740123	0.616136
853	H	0.935346	0.735841	0.398779
854	H	0.56211	0.762498	0.599521
855	N	0.929632	0.726731	0.63157
856	H	0.931441	0.739031	0.601628
857	N	0.567821	0.771602	0.366737
858	H	0.566007	0.759297	0.396676
859	C	0.690239	0.868161	0.706775
860	N	0.700612	0.843201	0.706536
861	C	0.676231	0.807644	0.706802
862	N	0.640898	0.797268	0.706539
863	C	0.629718	0.821648	0.706789
864	N	0.654679	0.856981	0.706526
865	C	0.686912	0.780133	0.037358
866	H	0.673744	0.763801	0.007982
867	H	0.676937	0.76295	0.73342
868	C	0.591527	0.810967	0.704014
869	H	0.58836	0.824131	0.007969
870	H	0.584321	0.820947	0.73341
871	C	0.717743	0.906355	0.704014
872	H	0.734085	0.909526	0.007978
873	H	0.734918	0.913556	0.733417
874	C	0.807228	0.630142	0.624868
875	N	0.79684	0.655092	0.625108
876	C	0.821212	0.690652	0.624841
877	N	0.856549	0.701038	0.625101
878	C	0.86774	0.676669	0.624851
879	N	0.842789	0.641331	0.625114
880	C	0.810518	0.718152	0.960947
881	H	0.820491	0.735335	0.93155
882	H	0.823682	0.734487	0.656993
883	C	0.905936	0.687363	0.627627
884	H	0.913146	0.677386	0.931563
885	H	0.909106	0.674202	0.657007
886	C	0.77973	0.591943	0.627627
887	H	0.762555	0.584737	0.931557
888	H	0.763388	0.588767	0.656997
889	C	0.733186	0.742633	0.708376
890	C	0.744474	0.719608	0.690926
891	C	0.75994	0.725942	0.981405
892	C	0.764233	0.755636	0.956588
893	C	0.752948	0.778661	0.974041
894	C	0.737479	0.772327	0.683562
895	H	0.775463	0.76044	0.925574
896	O	0.739668	0.691061	0.715494
897	H	0.721957	0.737829	0.73939
898	O	0.757751	0.807207	0.949473
899	H	0.762044	0.699084	0.732112
900	H	0.735375	0.799184	0.932855
901	N	0.771149	0.70248	0.964897
902	H	0.758848	0.691987	0.934958
903	N	0.72628	0.795794	0.700074
904	H	0.738584	0.806284	0.730013
905	C	0.755241	0.990128	0.708379
906	C	0.778266	0.524438	0.690932
907	C	0.771941	0.533577	0.981412
908	C	0.742252	0.508176	0.956588
909	C	0.719224	0.973865	0.974031
910	C	0.725549	0.964726	0.683552
911	H	0.737455	0.514606	0.92557
912	O	0.806809	0.548178	0.715514
913	H	0.760037	0.983697	0.739393
914	O	0.690683	0.950125	0.949453
915	H	0.798784	0.56253	0.732126
916	H	0.698708	0.935773	0.932841
917	N	0.795404	0.568249	0.964913
918	H	0.805907	0.566445	0.934974
919	N	0.70208	0.930057	0.70006
920	H	0.691583	0.931869	0.729996
921	C	0.507753	0.764697	0.708376
922	C	0.973441	0.75341	0.690926
923	C	0.964303	0.737939	0.981409
924	C	0.989705	0.733644	0.956591
925	C	0.524016	0.744932	0.974041
926	C	0.533153	0.760402	0.683558
927	H	0.983275	0.722412	0.925577
928	O	0.949701	0.758216	0.715497
929	H	0.51418	0.775926	0.73939
930	O	0.547754	0.740123	0.94947
931	H	0.935346	0.735841	0.732112
932	H	0.56211	0.762498	0.932855
933	N	0.929632	0.726731	0.9649
934	H	0.931441	0.739031	0.934961
935	N	0.567821	0.771602	0.70007
936	H	0.566007	0.759297	0.730009
