data_C432H432N216_2018-02-15_10:45:49
#******************************************
#
# CIF file created by Zeo++
# Zeo++ is an open source package to
# analyze microporous materials
#
#*******************************************

_cell_length_a		45.8157   
_cell_length_b		45.8157   
_cell_length_c		29.7014   
_cell_angle_alpha		90   
_cell_angle_beta		90   
_cell_angle_gamma		120   

_symmetry_space_group_name_H-M		'P1'
_symmetry_Int_Tables_number		1
_symmetry_cell_setting		Monoclinic

loop_
_symmetry_equiv_pos_as_xyz
'+x,+y,+z'

loop_
_atom_site_label
_atom_site_type_symbol
_atom_site_fract_x
_atom_site_fract_y
_atom_site_fract_z
1	C	0.042656	0.266972	0.015172
2	C	0.018126	0.231819	0.017497
3	C	0.030846	0.290237	0.342014
4	N	0.025929	0.209678	0.037817
5	H	0.04651	0.217788	0.055126
6	H	0.008497	0.187165	0.046157
7	N	0.050399	0.323419	0.353879
8	H	0.070035	0.330698	0.372743
9	H	0.040969	0.338201	0.355703
10	C	0.07772	0.277058	0.014924
11	H	0.084077	0.258728	0.014347
12	C	0.042656	0.266972	0.348505
13	C	0.018126	0.231819	0.350832
14	C	0.030846	0.290237	0.675348
15	N	0.025929	0.209678	0.371151
16	H	0.04651	0.217788	0.388459
17	H	0.008497	0.187165	0.37949
18	N	0.050399	0.323419	0.687213
19	H	0.070035	0.330698	0.706077
20	H	0.040969	0.338201	0.689038
21	C	0.07772	0.277058	0.348259
22	H	0.084077	0.258728	0.34768
23	C	0.042656	0.266972	0.681839
24	C	0.018126	0.231819	0.684166
25	C	0.030846	0.290237	0.00868
26	N	0.025929	0.209678	0.704485
27	H	0.04651	0.217788	0.721794
28	H	0.008497	0.187165	0.712824
29	N	0.050399	0.323419	0.020545
30	H	0.070035	0.330698	0.039409
31	H	0.040969	0.338201	0.022371
32	C	0.07772	0.277058	0.68159
33	H	0.084077	0.258728	0.681014
34	C	0.042655	0.766969	0.015172
35	C	0.018126	0.731819	0.017497
36	C	0.030845	0.790237	0.342014
37	N	0.025929	0.709678	0.037817
38	H	0.046509	0.717788	0.055126
39	H	0.008495	0.687164	0.046157
40	N	0.050398	0.823419	0.353879
41	H	0.070033	0.830696	0.372743
42	H	0.040967	0.838201	0.355703
43	C	0.07772	0.777058	0.014924
44	H	0.084075	0.758726	0.014347
45	C	0.042655	0.766969	0.348505
46	C	0.018126	0.731819	0.350832
47	C	0.030845	0.790237	0.675348
48	N	0.025929	0.709678	0.371151
49	H	0.046509	0.717788	0.388459
50	H	0.008495	0.687164	0.37949
51	N	0.050398	0.823419	0.687213
52	H	0.070033	0.830696	0.706077
53	H	0.040967	0.838201	0.689038
54	C	0.07772	0.777058	0.348259
55	H	0.084075	0.758726	0.34768
56	C	0.042655	0.766969	0.681839
57	C	0.018126	0.731819	0.684166
58	C	0.030845	0.790237	0.00868
59	N	0.025929	0.709678	0.704485
60	H	0.046509	0.717788	0.721794
61	H	0.008495	0.687164	0.712824
62	N	0.050398	0.823419	0.020545
63	H	0.070033	0.830696	0.039409
64	H	0.040967	0.838201	0.022371
65	C	0.07772	0.777058	0.68159
66	H	0.084075	0.758726	0.681014
67	C	0.154826	0.303063	0.009062
68	C	0.138313	0.322207	0.009179
69	C	0.158321	0.357723	0.009053
70	H	0.146551	0.371653	0.009791
71	H	0.140896	0.277363	0.009812
72	N	0.104285	0.308839	0.011282
73	H	0.174661	0.205308	0.356522
74	C	0.154826	0.303063	0.342394
75	C	0.138313	0.322207	0.342512
76	C	0.158321	0.357723	0.342388
77	H	0.146551	0.371653	0.343125
78	H	0.140896	0.277363	0.343145
79	N	0.104285	0.308839	0.344616
80	H	0.174661	0.205308	0.689856
81	C	0.154826	0.303063	0.675728
82	C	0.138313	0.322207	0.675846
83	C	0.158321	0.357723	0.675722
84	H	0.146551	0.371653	0.676459
85	H	0.140896	0.277363	0.676479
86	N	0.104285	0.308839	0.677951
87	H	0.174661	0.205308	0.023188
88	C	0.154825	0.803063	0.009062
89	C	0.138312	0.822207	0.009179
90	C	0.158319	0.857721	0.009053
91	H	0.146548	0.871651	0.009791
92	H	0.140895	0.777363	0.009812
93	N	0.104284	0.808839	0.011282
94	H	0.17466	0.705307	0.356522
95	C	0.154825	0.803063	0.342394
96	C	0.138312	0.822207	0.342512
97	C	0.158319	0.857721	0.342388
98	H	0.146548	0.871651	0.343125
99	H	0.140895	0.777363	0.343145
100	N	0.104284	0.808839	0.344616
101	H	0.17466	0.705307	0.689856
102	C	0.154825	0.803063	0.675728
103	C	0.138312	0.822207	0.675846
104	C	0.158319	0.857721	0.675722
105	H	0.146548	0.871651	0.676459
106	H	0.140895	0.777363	0.676479
107	N	0.104284	0.808839	0.677951
108	H	0.17466	0.705307	0.023188
109	C	0.190342	0.318573	0.00921
110	C	0.193977	0.374236	0.009178
111	C	0.209485	0.35423	0.009012
112	H	0.235184	0.366003	0.009793
113	N	0.203723	0.297924	0.01134
114	N	0.214637	0.408266	0.01132
115	C	0.234282	0.221154	0.327696
116	C	0.222353	0.243128	0.342303
117	N	0.212123	0.191158	0.30753
118	H	0.219983	0.178378	0.290464
119	H	0.189567	0.186055	0.299298
120	N	0.189182	0.229525	0.354323
121	H	0.182259	0.242008	0.373514
122	C	0.23552	0.303174	0.014957
123	C	0.234355	0.469882	0.015325
124	C	0.223739	0.494408	0.017861
125	N	0.231955	0.047857	0.991609
126	H	0.207757	0.038506	0.989993
127	N	0.193839	0.486532	0.038348
128	H	0.181152	0.465873	0.055405
129	H	0.188766	0.503965	0.046803
130	C	0.209399	0.434812	0.015065
131	H	0.184707	0.428438	0.014588
132	C	0.190342	0.318573	0.342542
133	C	0.193977	0.374236	0.342512
134	C	0.209485	0.35423	0.342347
135	H	0.235184	0.366003	0.343125
136	N	0.203723	0.297924	0.344674
137	N	0.214637	0.408266	0.344653
138	C	0.234282	0.221154	0.661029
139	C	0.222353	0.243128	0.675638
140	N	0.212123	0.191158	0.640865
141	H	0.219983	0.178378	0.623798
142	H	0.189567	0.186055	0.632633
143	N	0.189182	0.229525	0.687657
144	H	0.182259	0.242008	0.706848
145	C	0.23552	0.303174	0.34829
146	C	0.234355	0.469882	0.34866
147	C	0.223739	0.494408	0.351195
148	N	0.231955	0.047857	0.324942
149	H	0.207757	0.038506	0.323326
150	N	0.193839	0.486532	0.371682
151	H	0.181152	0.465873	0.388739
152	H	0.188766	0.503965	0.380137
153	C	0.209399	0.434812	0.348397
154	H	0.184707	0.428438	0.347923
155	C	0.190342	0.318573	0.675877
156	C	0.193977	0.374236	0.675846
157	C	0.209485	0.35423	0.675681
158	H	0.235184	0.366003	0.676459
159	N	0.203723	0.297924	0.678008
160	N	0.214637	0.408266	0.677988
161	C	0.234282	0.221154	0.994363
162	C	0.222353	0.243128	0.00897
163	N	0.212123	0.191158	0.974199
164	H	0.219983	0.178378	0.957132
165	H	0.189567	0.186055	0.965964
166	N	0.189182	0.229525	0.020989
167	H	0.182259	0.242008	0.04018
168	C	0.23552	0.303174	0.681624
169	C	0.234355	0.469882	0.681991
170	C	0.223739	0.494408	0.684529
171	N	0.231955	0.047857	0.658275
172	H	0.207757	0.038506	0.656659
173	N	0.193839	0.486532	0.705017
174	H	0.181152	0.465873	0.722073
175	H	0.188766	0.503965	0.713471
176	C	0.209399	0.434812	0.681732
177	H	0.184707	0.428438	0.681253
178	C	0.190341	0.818573	0.00921
179	C	0.193978	0.874237	0.009178
180	C	0.209485	0.85423	0.009012
181	H	0.235184	0.866003	0.009793
182	N	0.203721	0.797921	0.01134
183	N	0.214634	0.908263	0.01132
184	C	0.234281	0.721153	0.327696
185	C	0.222352	0.743127	0.342303
186	N	0.212123	0.691158	0.30753
187	H	0.219983	0.678378	0.290464
188	H	0.189567	0.686055	0.299298
189	N	0.189182	0.729525	0.354323
190	H	0.182259	0.742008	0.373514
191	C	0.235519	0.803174	0.014957
192	C	0.234354	0.969883	0.015325
193	C	0.223738	0.994405	0.017861
194	N	0.231954	0.547856	0.991609
195	H	0.207756	0.538506	0.989993
196	N	0.193839	0.986532	0.038348
197	H	0.18115	0.965873	0.055405
198	H	0.188765	0.003965	0.046803
199	C	0.2094	0.934812	0.015065
200	H	0.184707	0.928438	0.014588
201	C	0.190341	0.818573	0.342542
202	C	0.193978	0.874237	0.342512
203	C	0.209485	0.85423	0.342347
204	H	0.235184	0.866003	0.343125
205	N	0.203721	0.797921	0.344674
206	N	0.214634	0.908263	0.344653
207	C	0.234281	0.721153	0.661029
208	C	0.222352	0.743127	0.675638
209	N	0.212123	0.691158	0.640865
210	H	0.219983	0.678378	0.623798
211	H	0.189567	0.686055	0.632633
212	N	0.189182	0.729525	0.687657
213	H	0.182259	0.742008	0.706848
214	C	0.235519	0.803174	0.34829
215	C	0.234354	0.969883	0.34866
216	C	0.223738	0.994405	0.351195
217	N	0.231954	0.547856	0.324942
218	H	0.207756	0.538506	0.323326
219	N	0.193839	0.986532	0.371682
220	H	0.18115	0.965873	0.388739
221	H	0.188765	0.003965	0.380137
222	C	0.2094	0.934812	0.348397
223	H	0.184707	0.928438	0.347923
224	C	0.190341	0.818573	0.675877
225	C	0.193978	0.874237	0.675846
226	C	0.209485	0.85423	0.675681
227	H	0.235184	0.866003	0.676459
228	N	0.203721	0.797921	0.678008
229	N	0.214634	0.908263	0.677988
230	C	0.234281	0.721153	0.994363
231	C	0.222352	0.743127	0.00897
232	N	0.212123	0.691158	0.974199
233	H	0.219983	0.678378	0.957132
234	H	0.189567	0.686055	0.965964
235	N	0.189182	0.729525	0.020989
236	H	0.182259	0.742008	0.04018
237	C	0.235519	0.803174	0.681624
238	C	0.234354	0.969883	0.681991
239	C	0.223738	0.994405	0.684529
240	N	0.231954	0.547856	0.658275
241	H	0.207756	0.538506	0.656659
242	N	0.193839	0.986532	0.705017
243	H	0.18115	0.965873	0.722073
244	H	0.188765	0.003965	0.713471
245	C	0.2094	0.934812	0.681732
246	H	0.184707	0.928438	0.681253
247	C	0.324736	0.191446	0.002578
248	C	0.360252	0.206961	0.002672
249	C	0.376775	0.187824	0.002477
250	C	0.356776	0.152308	0.002666
251	C	0.321117	0.135789	0.002585
252	C	0.305602	0.155788	0.00276
253	H	0.368548	0.138381	0.001878
254	H	0.279902	0.144011	0.002033
255	H	0.374173	0.23266	0.001864
256	N	0.311352	0.21209	0.00044
257	N	0.410805	0.201207	0.000329
258	N	0.300459	0.101762	0.00047
259	C	0.245644	0.278228	0.015238
260	C	0.280798	0.288858	0.017428
261	C	0.292724	0.266886	0.00281
262	C	0.269437	0.231788	0.329869
263	N	0.325905	0.280496	0.990841
264	H	0.340499	0.304691	0.988707
265	H	0.332729	0.267977	0.971529
266	N	0.302955	0.318858	0.037586
267	H	0.295094	0.331638	0.054651
268	H	0.325513	0.323966	0.045817
269	H	0.25383	0.327868	0.014268
270	C	0.279551	0.206833	0.330161
271	H	0.261243	0.18214	0.330866
272	C	0.245646	0.028315	0.003238
273	C	0.280702	0.040132	0.329842
274	C	0.291319	0.015606	0.327349
275	C	0.269419	0.4817	0.341994
276	H	0.244279	0.067445	0.972623
277	N	0.321209	0.023456	0.30685
278	H	0.333893	0.0441	0.289762
279	H	0.326278	0.006014	0.298429
280	N	0.283111	0.462153	0.353633
281	H	0.270712	0.442731	0.372881
282	H	0.307297	0.471553	0.355353
283	C	0.305669	0.075198	0.330073
284	H	0.330359	0.081563	0.330535
285	C	0.484232	0.219861	0.002824
286	C	0.472417	0.243133	0.32973
287	C	0.49694	0.278283	0.327419
288	N	0.464677	0.186656	0.990959
289	H	0.474286	0.172061	0.988936
290	H	0.44534	0.179788	0.971627
291	N	0.489081	0.300391	0.307145
292	H	0.468429	0.29249	0.290098
293	H	0.506522	0.322928	0.298817
294	C	0.437346	0.233004	0.32999
295	H	0.430956	0.251309	0.330613
296	C	0.324736	0.191446	0.335911
297	C	0.360252	0.206961	0.336004
298	C	0.376775	0.187824	0.33581
299	C	0.356776	0.152308	0.335997
300	C	0.321117	0.135789	0.335916
301	C	0.305602	0.155788	0.336093
302	H	0.368548	0.138381	0.335212
303	H	0.279902	0.144011	0.335364
304	H	0.374173	0.23266	0.335198
305	N	0.311352	0.21209	0.333772
306	N	0.410805	0.201207	0.333662
307	N	0.300459	0.101762	0.333803
308	C	0.245644	0.278228	0.348572
309	C	0.280798	0.288858	0.350761
310	C	0.292724	0.266886	0.336143
311	C	0.269437	0.231788	0.663204
312	N	0.325905	0.280496	0.324175
313	H	0.340499	0.304691	0.322038
314	H	0.332729	0.267977	0.304863
315	N	0.302955	0.318858	0.370922
316	H	0.295094	0.331638	0.387985
317	H	0.325513	0.323966	0.37915
318	H	0.25383	0.327868	0.347603
319	C	0.279551	0.206833	0.663493
320	H	0.261243	0.18214	0.6642
321	C	0.245646	0.028315	0.336572
322	C	0.280702	0.040132	0.663177
323	C	0.291319	0.015606	0.660682
324	C	0.269419	0.4817	0.675328
325	H	0.244279	0.067445	0.305957
326	N	0.321209	0.023456	0.640185
327	H	0.333893	0.0441	0.623095
328	H	0.326278	0.006014	0.631764
329	N	0.283111	0.462153	0.686964
330	H	0.270712	0.442731	0.706215
331	H	0.307297	0.471553	0.688687
332	C	0.305669	0.075198	0.663406
333	H	0.330359	0.081563	0.66387
334	C	0.484232	0.219861	0.336158
335	C	0.472417	0.243133	0.663062
336	C	0.49694	0.278283	0.660753
337	N	0.464677	0.186656	0.324293
338	H	0.474286	0.172061	0.32227
339	H	0.44534	0.179788	0.304958
340	N	0.489081	0.300391	0.640478
341	H	0.468429	0.29249	0.623431
342	H	0.506522	0.322928	0.632151
343	C	0.437346	0.233004	0.663325
344	H	0.430956	0.251309	0.663948
345	C	0.324736	0.191446	0.669244
346	C	0.360252	0.206961	0.669338
347	C	0.376775	0.187824	0.669143
348	C	0.356776	0.152308	0.669331
349	C	0.321117	0.135789	0.669251
350	C	0.305602	0.155788	0.669426
351	H	0.368548	0.138381	0.668547
352	H	0.279902	0.144011	0.668699
353	H	0.374173	0.23266	0.66853
354	N	0.311352	0.21209	0.667106
355	N	0.410805	0.201207	0.666995
356	N	0.300459	0.101762	0.667136
357	C	0.245644	0.278228	0.681907
358	C	0.280798	0.288858	0.684095
359	C	0.292724	0.266886	0.669476
360	C	0.269437	0.231788	0.996535
361	N	0.325905	0.280496	0.657507
362	H	0.340499	0.304691	0.655373
363	H	0.332729	0.267977	0.638198
364	N	0.302955	0.318858	0.704252
365	H	0.295094	0.331638	0.721319
366	H	0.325513	0.323966	0.712484
367	H	0.25383	0.327868	0.680937
368	C	0.279551	0.206833	0.996828
369	H	0.261243	0.18214	0.997535
370	C	0.245646	0.028315	0.669907
371	C	0.280702	0.040132	0.996511
372	C	0.291319	0.015606	0.994016
373	C	0.269419	0.4817	0.00866
374	H	0.244279	0.067445	0.639289
375	N	0.321209	0.023456	0.973519
376	H	0.333893	0.0441	0.956429
377	H	0.326278	0.006014	0.965095
378	N	0.283111	0.462153	0.020298
379	H	0.270712	0.442731	0.039548
380	H	0.307297	0.471553	0.022021
381	C	0.305669	0.075198	0.99674
382	H	0.330359	0.081563	0.997201
383	C	0.484232	0.219861	0.669493
384	C	0.472417	0.243133	0.996397
385	C	0.49694	0.278283	0.994087
386	N	0.464677	0.186656	0.657628
387	H	0.474286	0.172061	0.655605
388	H	0.44534	0.179788	0.638293
389	N	0.489081	0.300391	0.973812
390	H	0.468429	0.29249	0.956765
391	H	0.506522	0.322928	0.965486
392	C	0.437346	0.233004	0.996656
393	H	0.430956	0.251309	0.997282
394	C	0.324736	0.691446	0.002578
395	C	0.360252	0.706961	0.002672
396	C	0.376775	0.687824	0.002477
397	C	0.356774	0.652308	0.002666
398	C	0.321116	0.635787	0.002585
399	C	0.305602	0.655788	0.00276
400	H	0.368547	0.638381	0.001878
401	H	0.279901	0.644011	0.002033
402	H	0.374172	0.732658	0.001864
403	N	0.311351	0.71209	0.00044
404	N	0.410805	0.701207	0.000329
405	N	0.300458	0.60176	0.00047
406	C	0.245643	0.778228	0.015238
407	C	0.280798	0.788858	0.017428
408	C	0.292723	0.766886	0.00281
409	C	0.269437	0.731788	0.329869
410	N	0.325905	0.780496	0.990841
411	H	0.340498	0.804691	0.988707
412	H	0.332727	0.767975	0.971529
413	N	0.302955	0.818858	0.037586
414	H	0.295093	0.831636	0.054651
415	H	0.325512	0.823966	0.045817
416	H	0.25383	0.827868	0.014268
417	C	0.27955	0.706832	0.330161
418	H	0.261242	0.682141	0.330866
419	C	0.245645	0.528313	0.003238
420	C	0.280701	0.540131	0.329842
421	C	0.291318	0.515606	0.327349
422	C	0.269418	0.9817	0.341994
423	H	0.244278	0.567444	0.972623
424	N	0.321208	0.523454	0.30685
425	H	0.333893	0.544101	0.289762
426	H	0.326278	0.506014	0.298429
427	N	0.283111	0.962153	0.353633
428	H	0.27071	0.942729	0.372881
429	H	0.307297	0.971553	0.355353
430	C	0.305669	0.575199	0.330073
431	H	0.330359	0.581563	0.330535
432	C	0.484231	0.71986	0.002824
433	C	0.472417	0.743132	0.32973
434	C	0.496939	0.778283	0.327419
435	N	0.464675	0.686655	0.990959
436	H	0.474285	0.672059	0.988936
437	H	0.445339	0.679787	0.971627
438	N	0.489079	0.800389	0.307145
439	H	0.468427	0.792488	0.290098
440	H	0.506522	0.822928	0.298817
441	C	0.437345	0.733003	0.32999
442	H	0.430955	0.751308	0.330613
443	C	0.324736	0.691446	0.335911
444	C	0.360252	0.706961	0.336004
445	C	0.376775	0.687824	0.33581
446	C	0.356774	0.652308	0.335997
447	C	0.321116	0.635787	0.335916
448	C	0.305602	0.655788	0.336093
449	H	0.368547	0.638381	0.335212
450	H	0.279901	0.644011	0.335364
451	H	0.374172	0.732658	0.335198
452	N	0.311351	0.71209	0.333772
453	N	0.410805	0.701207	0.333662
454	N	0.300458	0.60176	0.333803
455	C	0.245643	0.778228	0.348572
456	C	0.280798	0.788858	0.350761
457	C	0.292723	0.766886	0.336144
458	C	0.269437	0.731788	0.663204
459	N	0.325905	0.780496	0.324175
460	H	0.340498	0.804691	0.322038
461	H	0.332727	0.767975	0.304863
462	N	0.302955	0.818858	0.370922
463	H	0.295093	0.831636	0.387985
464	H	0.325512	0.823966	0.37915
465	H	0.25383	0.827868	0.347603
466	C	0.27955	0.706832	0.663493
467	H	0.261242	0.682141	0.6642
468	C	0.245645	0.528313	0.336572
469	C	0.280701	0.540131	0.663177
470	C	0.291318	0.515606	0.660682
471	C	0.269418	0.9817	0.675328
472	H	0.244278	0.567444	0.305957
473	N	0.321208	0.523454	0.640185
474	H	0.333893	0.544101	0.623095
475	H	0.326278	0.506014	0.631764
476	N	0.283111	0.962153	0.686964
477	H	0.27071	0.942729	0.706215
478	H	0.307297	0.971553	0.688687
479	C	0.305669	0.575199	0.663406
480	H	0.330359	0.581563	0.66387
481	C	0.484231	0.71986	0.336158
482	C	0.472417	0.743132	0.663062
483	C	0.496939	0.778283	0.660753
484	N	0.464675	0.686655	0.324293
485	H	0.474285	0.672059	0.32227
486	H	0.445339	0.679787	0.304958
487	N	0.489079	0.800389	0.640478
488	H	0.468427	0.792488	0.623431
489	H	0.506522	0.822928	0.632151
490	C	0.437345	0.733003	0.663325
491	H	0.430955	0.751308	0.663948
492	C	0.324736	0.691446	0.669244
493	C	0.360252	0.706961	0.669338
494	C	0.376775	0.687824	0.669143
495	C	0.356774	0.652308	0.669331
496	C	0.321116	0.635787	0.669251
497	C	0.305602	0.655788	0.669426
498	H	0.368547	0.638381	0.668547
499	H	0.279901	0.644011	0.668699
500	H	0.374172	0.732658	0.66853
501	N	0.311351	0.71209	0.667106
502	N	0.410805	0.701207	0.666995
503	N	0.300458	0.60176	0.667136
504	C	0.245643	0.778228	0.681907
505	C	0.280798	0.788858	0.684095
506	C	0.292723	0.766886	0.669476
507	C	0.269437	0.731788	0.996535
508	N	0.325905	0.780496	0.657507
509	H	0.340498	0.804691	0.655373
510	H	0.332727	0.767975	0.638198
511	N	0.302955	0.818858	0.704252
512	H	0.295093	0.831636	0.721319
513	H	0.325512	0.823966	0.712484
514	H	0.25383	0.827868	0.680937
515	C	0.27955	0.706832	0.996828
516	H	0.261242	0.682141	0.997535
517	C	0.245645	0.528313	0.669907
518	C	0.280701	0.540131	0.996511
519	C	0.291318	0.515606	0.994016
520	C	0.269418	0.9817	0.00866
521	H	0.244278	0.567444	0.639289
522	N	0.321208	0.523454	0.973519
523	H	0.333893	0.544101	0.956429
524	H	0.326278	0.506014	0.965095
525	N	0.283111	0.962153	0.020298
526	H	0.27071	0.942729	0.039548
527	H	0.307297	0.971553	0.022021
528	C	0.305669	0.575199	0.99674
529	H	0.330359	0.581563	0.997201
530	C	0.484231	0.71986	0.669493
531	C	0.472417	0.743132	0.996397
532	C	0.496939	0.778283	0.994087
533	N	0.464675	0.686655	0.657628
534	H	0.474285	0.672059	0.655605
535	H	0.445339	0.679787	0.638293
536	N	0.489079	0.800389	0.973812
537	H	0.468427	0.792488	0.956765
538	H	0.506522	0.822928	0.965486
539	C	0.437345	0.733003	0.996656
540	H	0.430955	0.751308	0.997282
541	C	0.690342	0.318573	0.00921
542	C	0.654826	0.303063	0.009062
543	C	0.638313	0.322207	0.009179
544	C	0.658321	0.357723	0.009053
545	C	0.693977	0.374236	0.009178
546	C	0.709485	0.35423	0.009012
547	H	0.64655	0.371653	0.009791
548	H	0.735183	0.366003	0.009793
549	H	0.640896	0.277363	0.009812
550	N	0.703723	0.297924	0.01134
551	N	0.604285	0.308839	0.011282
552	N	0.714636	0.408266	0.01132
553	C	0.824737	0.191446	0.002578
554	C	0.860253	0.206961	0.002672
555	C	0.876774	0.187824	0.002477
556	C	0.856775	0.152308	0.002666
557	C	0.821116	0.135789	0.002585
558	C	0.805601	0.155788	0.00276
559	H	0.868547	0.138381	0.001878
560	H	0.779903	0.144011	0.002033
561	H	0.874172	0.23266	0.001864
562	N	0.811351	0.21209	0.00044
563	N	0.910804	0.201207	0.000329
564	N	0.800458	0.101762	0.00047
565	C	0.745644	0.278228	0.015238
566	C	0.780798	0.288858	0.017428
567	C	0.792723	0.266886	0.00281
568	C	0.769438	0.231788	0.329869
569	C	0.734282	0.221154	0.327696
570	C	0.722354	0.243128	0.342303
571	N	0.825906	0.280496	0.990841
572	H	0.840498	0.304691	0.988707
573	H	0.832729	0.267977	0.971529
574	N	0.802955	0.318858	0.037586
575	H	0.795094	0.331638	0.054651
576	H	0.825513	0.323966	0.045817
577	N	0.712123	0.191158	0.30753
578	H	0.719983	0.178378	0.290464
579	H	0.689567	0.186055	0.299298
580	N	0.689181	0.229525	0.354323
581	H	0.682259	0.242008	0.373514
582	H	0.674661	0.205308	0.356522
583	C	0.73552	0.303174	0.014957
584	H	0.75383	0.327868	0.014268
585	C	0.779551	0.206833	0.330161
586	H	0.761242	0.18214	0.330866
587	C	0.734355	0.469882	0.015325
588	C	0.723739	0.494408	0.017861
589	C	0.745647	0.028315	0.003238
590	C	0.780701	0.040132	0.329842
591	C	0.791318	0.015606	0.327349
592	C	0.769419	0.4817	0.341994
593	N	0.731954	0.047857	0.991609
594	H	0.707757	0.038506	0.989993
595	H	0.74428	0.067445	0.972623
596	N	0.693838	0.486532	0.038348
597	H	0.681151	0.465873	0.055405
598	H	0.688767	0.503965	0.046803
599	N	0.821208	0.023456	0.30685
600	H	0.833892	0.0441	0.289762
601	H	0.826279	0.006014	0.298429
602	N	0.783111	0.462153	0.353633
603	H	0.770712	0.442731	0.372881
604	H	0.807296	0.471553	0.355353
605	C	0.709399	0.434812	0.015065
606	H	0.684708	0.428438	0.014588
607	C	0.805668	0.075198	0.330073
608	H	0.83036	0.081563	0.330535
609	C	0.542655	0.266972	0.015172
610	C	0.518125	0.231819	0.017497
611	C	0.984231	0.219861	0.002824
612	C	0.972419	0.243133	0.32973
613	C	0.996939	0.278283	0.327419
614	C	0.530846	0.290237	0.342014
615	N	0.964676	0.186656	0.990959
616	H	0.974287	0.172061	0.988936
617	H	0.945341	0.179788	0.971627
618	N	0.525928	0.209678	0.037817
619	H	0.54651	0.217788	0.055126
620	H	0.508497	0.187165	0.046157
621	N	0.98908	0.300391	0.307145
622	H	0.968428	0.29249	0.290098
623	H	0.006523	0.322928	0.298817
624	N	0.550399	0.323419	0.353879
625	H	0.570035	0.330698	0.372743
626	H	0.540968	0.338201	0.355703
627	C	0.577719	0.277058	0.014924
628	H	0.584077	0.258728	0.014347
629	C	0.937345	0.233004	0.32999
630	H	0.930955	0.251309	0.330613
631	C	0.690342	0.318573	0.342542
632	C	0.654826	0.303063	0.342394
633	C	0.638313	0.322207	0.342512
634	C	0.658321	0.357723	0.342388
635	C	0.693977	0.374236	0.342512
636	C	0.709485	0.35423	0.342347
637	H	0.64655	0.371653	0.343125
638	H	0.735183	0.366003	0.343125
639	H	0.640896	0.277363	0.343145
640	N	0.703723	0.297924	0.344674
641	N	0.604285	0.308839	0.344616
642	N	0.714636	0.408266	0.344653
643	C	0.824737	0.191446	0.335911
644	C	0.860253	0.206961	0.336004
645	C	0.876774	0.187824	0.33581
646	C	0.856775	0.152308	0.335997
647	C	0.821116	0.135789	0.335916
648	C	0.805601	0.155788	0.336093
649	H	0.868547	0.138381	0.335212
650	H	0.779903	0.144011	0.335364
651	H	0.874172	0.23266	0.335198
652	N	0.811351	0.21209	0.333772
653	N	0.910804	0.201207	0.333662
654	N	0.800458	0.101762	0.333803
655	C	0.745644	0.278228	0.348572
656	C	0.780798	0.288858	0.350761
657	C	0.792723	0.266886	0.336143
658	C	0.769438	0.231788	0.663204
659	C	0.734282	0.221154	0.661029
660	C	0.722354	0.243128	0.675638
661	N	0.825906	0.280496	0.324175
662	H	0.840498	0.304691	0.322038
663	H	0.832729	0.267977	0.304863
664	N	0.802955	0.318858	0.370922
665	H	0.795094	0.331638	0.387985
666	H	0.825513	0.323966	0.37915
667	N	0.712123	0.191158	0.640865
668	H	0.719983	0.178378	0.623798
669	H	0.689567	0.186055	0.632633
670	N	0.689181	0.229525	0.687657
671	H	0.682259	0.242008	0.706848
672	H	0.674661	0.205308	0.689856
673	C	0.73552	0.303174	0.34829
674	H	0.75383	0.327868	0.347603
675	C	0.779551	0.206833	0.663493
676	H	0.761242	0.18214	0.6642
677	C	0.734355	0.469882	0.34866
678	C	0.723739	0.494408	0.351195
679	C	0.745647	0.028315	0.336572
680	C	0.780701	0.040132	0.663177
681	C	0.791318	0.015606	0.660682
682	C	0.769419	0.4817	0.675328
683	N	0.731954	0.047857	0.324942
684	H	0.707757	0.038506	0.323326
685	H	0.74428	0.067445	0.305957
686	N	0.693838	0.486532	0.371682
687	H	0.681151	0.465873	0.388739
688	H	0.688767	0.503965	0.380137
689	N	0.821208	0.023456	0.640185
690	H	0.833892	0.0441	0.623095
691	H	0.826279	0.006014	0.631764
692	N	0.783111	0.462153	0.686964
693	H	0.770712	0.442731	0.706215
694	H	0.807296	0.471553	0.688687
695	C	0.709399	0.434812	0.348397
696	H	0.684708	0.428438	0.347923
697	C	0.805668	0.075198	0.663406
698	H	0.83036	0.081563	0.66387
699	C	0.542655	0.266972	0.348505
700	C	0.518125	0.231819	0.350832
701	C	0.984231	0.219861	0.336158
702	C	0.972419	0.243133	0.663062
703	C	0.996939	0.278283	0.660753
704	C	0.530846	0.290237	0.675348
705	N	0.964676	0.186656	0.324293
706	H	0.974287	0.172061	0.32227
707	H	0.945341	0.179788	0.304958
708	N	0.525928	0.209678	0.371151
709	H	0.54651	0.217788	0.388459
710	H	0.508497	0.187165	0.37949
711	N	0.98908	0.300391	0.640478
712	H	0.968428	0.29249	0.623431
713	H	0.006523	0.322928	0.632151
714	N	0.550399	0.323419	0.687213
715	H	0.570035	0.330698	0.706077
716	H	0.540968	0.338201	0.689038
717	C	0.577719	0.277058	0.348259
718	H	0.584077	0.258728	0.34768
719	C	0.937345	0.233004	0.663325
720	H	0.930955	0.251309	0.663948
721	C	0.690342	0.318573	0.675877
722	C	0.654826	0.303063	0.675728
723	C	0.638313	0.322207	0.675846
724	C	0.658321	0.357723	0.675722
725	C	0.693977	0.374236	0.675846
726	C	0.709485	0.35423	0.675681
727	H	0.64655	0.371653	0.676459
728	H	0.735183	0.366003	0.676459
729	H	0.640896	0.277363	0.676479
730	N	0.703723	0.297924	0.678008
731	N	0.604285	0.308839	0.677951
732	N	0.714636	0.408266	0.677988
733	C	0.824737	0.191446	0.669244
734	C	0.860253	0.206961	0.669338
735	C	0.876774	0.187824	0.669143
736	C	0.856775	0.152308	0.669331
737	C	0.821116	0.135789	0.669251
738	C	0.805601	0.155788	0.669426
739	H	0.868547	0.138381	0.668547
740	H	0.779903	0.144011	0.668699
741	H	0.874172	0.23266	0.66853
742	N	0.811351	0.21209	0.667106
743	N	0.910804	0.201207	0.666995
744	N	0.800458	0.101762	0.667136
745	C	0.745644	0.278228	0.681907
746	C	0.780798	0.288858	0.684095
747	C	0.792723	0.266886	0.669476
748	C	0.769438	0.231788	0.996535
749	C	0.734282	0.221154	0.994363
750	C	0.722354	0.243128	0.00897
751	N	0.825906	0.280496	0.657507
752	H	0.840498	0.304691	0.655373
753	H	0.832729	0.267977	0.638198
754	N	0.802955	0.318858	0.704252
755	H	0.795094	0.331638	0.721319
756	H	0.825513	0.323966	0.712484
757	N	0.712123	0.191158	0.974199
758	H	0.719983	0.178378	0.957132
759	H	0.689567	0.186055	0.965964
760	N	0.689181	0.229525	0.020989
761	H	0.682259	0.242008	0.04018
762	H	0.674661	0.205308	0.023188
763	C	0.73552	0.303174	0.681624
764	H	0.75383	0.327868	0.680937
765	C	0.779551	0.206833	0.996828
766	H	0.761242	0.18214	0.997535
767	C	0.734355	0.469882	0.681991
768	C	0.723739	0.494408	0.684529
769	C	0.745647	0.028315	0.669907
770	C	0.780701	0.040132	0.996511
771	C	0.791318	0.015606	0.994016
772	C	0.769419	0.4817	0.00866
773	N	0.731954	0.047857	0.658275
774	H	0.707757	0.038506	0.656659
775	H	0.74428	0.067445	0.639289
776	N	0.693838	0.486532	0.705017
777	H	0.681151	0.465873	0.722073
778	H	0.688767	0.503965	0.713471
779	N	0.821208	0.023456	0.973519
780	H	0.833892	0.0441	0.956429
781	H	0.826279	0.006014	0.965095
782	N	0.783111	0.462153	0.020298
783	H	0.770712	0.442731	0.039548
784	H	0.807296	0.471553	0.022021
785	C	0.709399	0.434812	0.681732
786	H	0.684708	0.428438	0.681253
787	C	0.805668	0.075198	0.99674
788	H	0.83036	0.081563	0.997201
789	C	0.542655	0.266972	0.681839
790	C	0.518125	0.231819	0.684166
791	C	0.984231	0.219861	0.669493
792	C	0.972419	0.243133	0.996397
793	C	0.996939	0.278283	0.994087
794	C	0.530846	0.290237	0.00868
795	N	0.964676	0.186656	0.657628
796	H	0.974287	0.172061	0.655605
797	H	0.945341	0.179788	0.638293
798	N	0.525928	0.209678	0.704485
799	H	0.54651	0.217788	0.721794
800	H	0.508497	0.187165	0.712824
801	N	0.98908	0.300391	0.973812
802	H	0.968428	0.29249	0.956765
803	H	0.006523	0.322928	0.965486
804	N	0.550399	0.323419	0.020545
805	H	0.570035	0.330698	0.039409
806	H	0.540968	0.338201	0.022371
807	C	0.577719	0.277058	0.68159
808	H	0.584077	0.258728	0.681014
809	C	0.937345	0.233004	0.996656
810	H	0.930955	0.251309	0.997282
811	C	0.690342	0.818573	0.00921
812	C	0.654826	0.803063	0.009062
813	C	0.638313	0.822207	0.009179
814	C	0.65832	0.857721	0.009053
815	C	0.693977	0.874237	0.009178
816	C	0.709485	0.85423	0.009012
817	H	0.646549	0.871651	0.009791
818	H	0.735183	0.866003	0.009793
819	H	0.640896	0.777363	0.009812
820	N	0.70372	0.797921	0.01134
821	N	0.604284	0.808839	0.011282
822	N	0.714635	0.908263	0.01132
823	C	0.824737	0.691446	0.002578
824	C	0.860251	0.706961	0.002672
825	C	0.876774	0.687824	0.002477
826	C	0.856775	0.652308	0.002666
827	C	0.821116	0.635787	0.002585
828	C	0.805601	0.655788	0.00276
829	H	0.868547	0.638381	0.001878
830	H	0.7799	0.644011	0.002033
831	H	0.874172	0.732658	0.001864
832	N	0.811351	0.71209	0.00044
833	N	0.910804	0.701207	0.000329
834	N	0.800457	0.60176	0.00047
835	C	0.745644	0.778228	0.015238
836	C	0.780798	0.788858	0.017428
837	C	0.792723	0.766886	0.00281
838	C	0.769436	0.731788	0.329869
839	C	0.734282	0.721153	0.327696
840	C	0.722351	0.743127	0.342303
841	N	0.825903	0.780496	0.990841
842	H	0.840498	0.804691	0.988707
843	H	0.832728	0.767975	0.971529
844	N	0.802955	0.818858	0.037586
845	H	0.795093	0.831636	0.054651
846	H	0.825513	0.823966	0.045817
847	N	0.712123	0.691158	0.30753
848	H	0.719983	0.678378	0.290464
849	H	0.689567	0.686055	0.299298
850	N	0.689181	0.729525	0.354323
851	H	0.682259	0.742008	0.373514
852	H	0.67466	0.705307	0.356522
853	C	0.73552	0.803174	0.014957
854	H	0.75383	0.827868	0.014268
855	C	0.779551	0.706832	0.330161
856	H	0.761242	0.682141	0.330866
857	C	0.734355	0.969883	0.015325
858	C	0.723737	0.994405	0.017861
859	C	0.745644	0.528313	0.003238
860	C	0.7807	0.540131	0.329842
861	C	0.791318	0.515606	0.327349
862	C	0.76942	0.9817	0.341994
863	N	0.731954	0.547856	0.991609
864	H	0.707757	0.538506	0.989993
865	H	0.744277	0.567444	0.972623
866	N	0.693838	0.986532	0.038348
867	H	0.681151	0.965873	0.055405
868	H	0.688765	0.003965	0.046803
869	N	0.821207	0.523454	0.30685
870	H	0.833892	0.544101	0.289762
871	H	0.826277	0.506014	0.298429
872	N	0.783112	0.962153	0.353633
873	H	0.77071	0.942729	0.372881
874	H	0.807296	0.971553	0.355353
875	C	0.709399	0.934812	0.015065
876	H	0.684706	0.928438	0.014588
877	C	0.805668	0.575199	0.330073
878	H	0.83036	0.581563	0.330535
879	C	0.542654	0.766969	0.015172
880	C	0.518125	0.731819	0.017497
881	C	0.98423	0.71986	0.002824
882	C	0.972418	0.743132	0.32973
883	C	0.996939	0.778283	0.327419
884	C	0.530845	0.790237	0.342014
885	N	0.964675	0.686655	0.990959
886	H	0.974284	0.672059	0.988936
887	H	0.94534	0.679787	0.971627
888	N	0.525928	0.709678	0.037817
889	H	0.54651	0.717788	0.055126
890	H	0.508496	0.687164	0.046157
891	N	0.989079	0.800389	0.307145
892	H	0.968427	0.792488	0.290098
893	H	0.006521	0.822928	0.298817
894	N	0.550398	0.823419	0.353879
895	H	0.570033	0.830696	0.372743
896	H	0.540968	0.838201	0.355703
897	C	0.577719	0.777058	0.014924
898	H	0.584075	0.758726	0.014347
899	C	0.937344	0.733003	0.32999
900	H	0.930954	0.751308	0.330613
901	C	0.690342	0.818573	0.342542
902	C	0.654826	0.803063	0.342394
903	C	0.638313	0.822207	0.342512
904	C	0.65832	0.857721	0.342388
905	C	0.693977	0.874237	0.342512
906	C	0.709485	0.85423	0.342347
907	H	0.646549	0.871651	0.343125
908	H	0.735183	0.866003	0.343125
909	H	0.640896	0.777363	0.343145
910	N	0.70372	0.797921	0.344674
911	N	0.604284	0.808839	0.344616
912	N	0.714635	0.908263	0.344653
913	C	0.824737	0.691446	0.335911
914	C	0.860251	0.706961	0.336004
915	C	0.876774	0.687824	0.33581
916	C	0.856775	0.652308	0.335997
917	C	0.821116	0.635787	0.335916
918	C	0.805601	0.655788	0.336093
919	H	0.868547	0.638381	0.335212
920	H	0.7799	0.644011	0.335364
921	H	0.874172	0.732658	0.335198
922	N	0.811351	0.71209	0.333772
923	N	0.910804	0.701207	0.333662
924	N	0.800457	0.60176	0.333803
925	C	0.745644	0.778228	0.348572
926	C	0.780798	0.788858	0.350761
927	C	0.792723	0.766886	0.336144
928	C	0.769436	0.731788	0.663204
929	C	0.734282	0.721153	0.661029
930	C	0.722351	0.743127	0.675638
931	N	0.825903	0.780496	0.324175
932	H	0.840498	0.804691	0.322038
933	H	0.832728	0.767975	0.304863
934	N	0.802955	0.818858	0.370922
935	H	0.795093	0.831636	0.387985
936	H	0.825513	0.823966	0.37915
937	N	0.712123	0.691158	0.640865
938	H	0.719983	0.678378	0.623798
939	H	0.689567	0.686055	0.632633
940	N	0.689181	0.729525	0.687657
941	H	0.682259	0.742008	0.706848
942	H	0.67466	0.705307	0.689856
943	C	0.73552	0.803174	0.34829
944	H	0.75383	0.827868	0.347603
945	C	0.779551	0.706832	0.663493
946	H	0.761242	0.682141	0.6642
947	C	0.734355	0.969883	0.34866
948	C	0.723737	0.994405	0.351195
949	C	0.745644	0.528313	0.336572
950	C	0.7807	0.540131	0.663177
951	C	0.791318	0.515606	0.660682
952	C	0.76942	0.9817	0.675328
953	N	0.731954	0.547856	0.324942
954	H	0.707757	0.538506	0.323326
955	H	0.744277	0.567444	0.305957
956	N	0.693838	0.986532	0.371682
957	H	0.681151	0.965873	0.388739
958	H	0.688765	0.003965	0.380137
959	N	0.821207	0.523454	0.640185
960	H	0.833892	0.544101	0.623095
961	H	0.826277	0.506014	0.631764
962	N	0.783112	0.962153	0.686964
963	H	0.77071	0.942729	0.706215
964	H	0.807296	0.971553	0.688687
965	C	0.709399	0.934812	0.348397
966	H	0.684706	0.928438	0.347923
967	C	0.805668	0.575199	0.663406
968	H	0.83036	0.581563	0.66387
969	C	0.542654	0.766969	0.348505
970	C	0.518125	0.731819	0.350832
971	C	0.98423	0.71986	0.336158
972	C	0.972418	0.743132	0.663062
973	C	0.996939	0.778283	0.660753
974	C	0.530845	0.790237	0.675348
975	N	0.964675	0.686655	0.324293
976	H	0.974284	0.672059	0.32227
977	H	0.94534	0.679787	0.304958
978	N	0.525928	0.709678	0.371151
979	H	0.54651	0.717788	0.388459
980	H	0.508496	0.687164	0.37949
981	N	0.989079	0.800389	0.640478
982	H	0.968427	0.792488	0.623431
983	H	0.006521	0.822928	0.632151
984	N	0.550398	0.823419	0.687213
985	H	0.570033	0.830696	0.706077
986	H	0.540968	0.838201	0.689038
987	C	0.577719	0.777058	0.348259
988	H	0.584075	0.758726	0.34768
989	C	0.937344	0.733003	0.663325
990	H	0.930954	0.751308	0.663948
991	C	0.690342	0.818573	0.675877
992	C	0.654826	0.803063	0.675728
993	C	0.638313	0.822207	0.675846
994	C	0.65832	0.857721	0.675722
995	C	0.693977	0.874237	0.675846
996	C	0.709485	0.85423	0.675681
997	H	0.646549	0.871651	0.676459
998	H	0.735183	0.866003	0.676459
999	H	0.640896	0.777363	0.676479
1000	N	0.70372	0.797921	0.678008
1001	N	0.604284	0.808839	0.677951
1002	N	0.714635	0.908263	0.677988
1003	C	0.824737	0.691446	0.669244
1004	C	0.860251	0.706961	0.669338
1005	C	0.876774	0.687824	0.669143
1006	C	0.856775	0.652308	0.669331
1007	C	0.821116	0.635787	0.669251
1008	C	0.805601	0.655788	0.669426
1009	H	0.868547	0.638381	0.668547
1010	H	0.7799	0.644011	0.668699
1011	H	0.874172	0.732658	0.66853
1012	N	0.811351	0.71209	0.667106
1013	N	0.910804	0.701207	0.666995
1014	N	0.800457	0.60176	0.667136
1015	C	0.745644	0.778228	0.681907
1016	C	0.780798	0.788858	0.684095
1017	C	0.792723	0.766886	0.669476
1018	C	0.769436	0.731788	0.996535
1019	C	0.734282	0.721153	0.994363
1020	C	0.722351	0.743127	0.00897
1021	N	0.825903	0.780496	0.657507
1022	H	0.840498	0.804691	0.655373
1023	H	0.832728	0.767975	0.638198
1024	N	0.802955	0.818858	0.704252
1025	H	0.795093	0.831636	0.721319
1026	H	0.825513	0.823966	0.712484
1027	N	0.712123	0.691158	0.974199
1028	H	0.719983	0.678378	0.957132
1029	H	0.689567	0.686055	0.965964
1030	N	0.689181	0.729525	0.020989
1031	H	0.682259	0.742008	0.04018
1032	H	0.67466	0.705307	0.023188
1033	C	0.73552	0.803174	0.681624
1034	H	0.75383	0.827868	0.680937
1035	C	0.779551	0.706832	0.996828
1036	H	0.761242	0.682141	0.997535
1037	C	0.734355	0.969883	0.681991
1038	C	0.723737	0.994405	0.684529
1039	C	0.745644	0.528313	0.669907
1040	C	0.7807	0.540131	0.996511
1041	C	0.791318	0.515606	0.994016
1042	C	0.76942	0.9817	0.00866
1043	N	0.731954	0.547856	0.658275
1044	H	0.707757	0.538506	0.656659
1045	H	0.744277	0.567444	0.639289
1046	N	0.693838	0.986532	0.705017
1047	H	0.681151	0.965873	0.722073
1048	H	0.688765	0.003965	0.713471
1049	N	0.821207	0.523454	0.973519
1050	H	0.833892	0.544101	0.956429
1051	H	0.826277	0.506014	0.965095
1052	N	0.783112	0.962153	0.020298
1053	H	0.77071	0.942729	0.039548
1054	H	0.807296	0.971553	0.022021
1055	C	0.709399	0.934812	0.681732
1056	H	0.684706	0.928438	0.681253
1057	C	0.805668	0.575199	0.99674
1058	H	0.83036	0.581563	0.997201
1059	C	0.542654	0.766969	0.681839
1060	C	0.518125	0.731819	0.684166
1061	C	0.98423	0.71986	0.669493
1062	C	0.972418	0.743132	0.996397
1063	C	0.996939	0.778283	0.994087
1064	C	0.530845	0.790237	0.00868
1065	N	0.964675	0.686655	0.657628
1066	H	0.974284	0.672059	0.655605
1067	H	0.94534	0.679787	0.638293
1068	N	0.525928	0.709678	0.704485
1069	H	0.54651	0.717788	0.721794
1070	H	0.508496	0.687164	0.712824
1071	N	0.989079	0.800389	0.973812
1072	H	0.968427	0.792488	0.956765
1073	H	0.006521	0.822928	0.965486
1074	N	0.550398	0.823419	0.020545
1075	H	0.570033	0.830696	0.039409
1076	H	0.540968	0.838201	0.022371
1077	C	0.577719	0.777058	0.68159
1078	H	0.584075	0.758726	0.681014
1079	C	0.937344	0.733003	0.996656
1080	H	0.930954	0.751308	0.997282
