data_C360H360N288_2018-02-15_10:45:07
#******************************************
#
# CIF file created by Zeo++
# Zeo++ is an open source package to
# analyze microporous materials
#
#*******************************************

_cell_length_a		45.3307   
_cell_length_b		45.3306   
_cell_length_c		29.6182   
_cell_angle_alpha		90   
_cell_angle_beta		90   
_cell_angle_gamma		120   

_symmetry_space_group_name_H-M		'P1'
_symmetry_Int_Tables_number		1
_symmetry_cell_setting		Monoclinic

loop_
_symmetry_equiv_pos_as_xyz
'+x,+y,+z'

loop_
_atom_site_label
_atom_site_type_symbol
_atom_site_fract_x
_atom_site_fract_y
_atom_site_fract_z
1	N	0.107343	0.297576	0.013133
2	C	0.04538	0.279486	0.016719
3	C	0.02125	0.291134	0.01733
4	C	0.032474	0.243689	0.34546
5	N	0.029902	0.322196	0.035759
6	H	0.050795	0.335182	0.052769
7	H	0.012659	0.32819	0.042949
8	N	0.051429	0.22946	0.359306
9	H	0.071075	0.242231	0.378524
10	H	0.041327	0.205	0.362524
11	C	0.081127	0.303919	0.01637
12	H	0.088481	0.32917	0.015081
13	N	0.107343	0.297576	0.346466
14	C	0.04538	0.279486	0.350052
15	C	0.02125	0.291134	0.350663
16	C	0.032474	0.243689	0.678792
17	N	0.029902	0.322196	0.369091
18	H	0.050795	0.335182	0.386104
19	H	0.012659	0.32819	0.376282
20	N	0.051429	0.22946	0.692638
21	H	0.071075	0.242231	0.711856
22	H	0.041327	0.205	0.695859
23	C	0.081127	0.303919	0.349704
24	H	0.088481	0.32917	0.348414
25	N	0.107343	0.297576	0.679798
26	C	0.04538	0.279486	0.683384
27	C	0.02125	0.291134	0.683995
28	C	0.032474	0.243689	0.012125
29	N	0.029902	0.322196	0.702426
30	H	0.050795	0.335182	0.719436
31	H	0.012659	0.32819	0.709614
32	N	0.051429	0.22946	0.025972
33	H	0.071075	0.242231	0.04519
34	H	0.041327	0.205	0.029191
35	C	0.081127	0.303919	0.683036
36	H	0.088481	0.32917	0.68175
37	N	0.107342	0.797575	0.013133
38	C	0.04538	0.779487	0.016719
39	C	0.021249	0.791136	0.01733
40	C	0.032474	0.74369	0.34546
41	N	0.0299	0.822195	0.035759
42	H	0.050795	0.835184	0.052769
43	H	0.012659	0.828189	0.042949
44	N	0.05143	0.729461	0.359306
45	H	0.071075	0.742231	0.378524
46	H	0.041326	0.704999	0.362524
47	C	0.081128	0.803921	0.01637
48	H	0.088482	0.829172	0.015081
49	N	0.107342	0.797575	0.346466
50	C	0.04538	0.779487	0.350052
51	C	0.021249	0.791136	0.350663
52	C	0.032474	0.74369	0.678792
53	N	0.0299	0.822195	0.369091
54	H	0.050795	0.835184	0.386104
55	H	0.012659	0.828189	0.376282
56	N	0.05143	0.729461	0.692638
57	H	0.071075	0.742231	0.711856
58	H	0.041326	0.704999	0.695859
59	C	0.081128	0.803921	0.349704
60	H	0.088482	0.829172	0.348414
61	N	0.107342	0.797575	0.679798
62	C	0.04538	0.779487	0.683384
63	C	0.021249	0.791136	0.683995
64	C	0.032474	0.74369	0.012125
65	N	0.0299	0.822195	0.702426
66	H	0.050795	0.835184	0.719436
67	H	0.012659	0.828189	0.709614
68	N	0.05143	0.729461	0.025972
69	H	0.071075	0.742231	0.04519
70	H	0.041326	0.704999	0.029191
71	C	0.081128	0.803921	0.683036
72	H	0.088482	0.829172	0.68175
73	C	0.141531	0.319157	0.011253
74	N	0.16236	0.305567	0.011341
75	C	0.196949	0.325574	0.011172
76	N	0.210538	0.359993	0.011339
77	C	0.190532	0.374576	0.011233
78	N	0.156113	0.353747	0.01141
79	N	0.20314	0.408763	0.013117
80	N	0.218529	0.312965	0.013021
81	H	0.208307	0.173576	0.984709
82	N	0.193863	0.210819	0.035104
83	H	0.18082	0.218649	0.052135
84	H	0.187856	0.187553	0.042135
85	C	0.212191	0.280405	0.01615
86	H	0.186943	0.262503	0.014772
87	N	0.214061	0.026628	0.312785
88	H	0.190794	0.009361	0.305732
89	N	0.19097	0.464643	0.359688
90	H	0.184153	0.445023	0.378848
91	H	0.176878	0.475041	0.363263
92	C	0.141531	0.319157	0.344585
93	N	0.16236	0.305567	0.344673
94	C	0.196949	0.325574	0.344504
95	N	0.210538	0.359993	0.344673
96	C	0.190532	0.374576	0.344565
97	N	0.156113	0.353747	0.344744
98	N	0.20314	0.408763	0.346449
99	N	0.218529	0.312965	0.346355
100	H	0.208307	0.173576	0.318042
101	N	0.193863	0.210819	0.368436
102	H	0.18082	0.218649	0.385469
103	H	0.187856	0.187553	0.375468
104	C	0.212191	0.280405	0.349484
105	H	0.186943	0.262503	0.348103
106	N	0.214061	0.026628	0.646119
107	H	0.190794	0.009361	0.639066
108	N	0.19097	0.464643	0.693023
109	H	0.184153	0.445023	0.71218
110	H	0.176878	0.475041	0.696595
111	C	0.141531	0.319157	0.677921
112	N	0.16236	0.305567	0.678009
113	C	0.196949	0.325574	0.67784
114	N	0.210538	0.359993	0.678005
115	C	0.190532	0.374576	0.677901
116	N	0.156113	0.353747	0.678076
117	N	0.20314	0.408763	0.679785
118	N	0.218529	0.312965	0.679687
119	H	0.208307	0.173576	0.651376
120	N	0.193863	0.210819	0.701771
121	H	0.18082	0.218649	0.718801
122	H	0.187856	0.187553	0.708801
123	C	0.212191	0.280405	0.682817
124	H	0.186943	0.262503	0.681439
125	N	0.214061	0.026628	0.979452
126	H	0.190794	0.009361	0.972399
127	N	0.19097	0.464643	0.026355
128	H	0.184153	0.445023	0.045513
129	H	0.176878	0.475041	0.02993
130	C	0.141529	0.819156	0.011253
131	N	0.16236	0.805566	0.011341
132	C	0.196948	0.825573	0.011172
133	N	0.210539	0.859994	0.011339
134	C	0.190532	0.874577	0.011233
135	N	0.156113	0.853746	0.01141
136	N	0.203141	0.908764	0.013117
137	N	0.218529	0.812966	0.013021
138	H	0.208307	0.673576	0.984709
139	N	0.193863	0.71082	0.035104
140	H	0.18082	0.71865	0.052135
141	H	0.187856	0.687553	0.042135
142	C	0.21219	0.780404	0.01615
143	H	0.186943	0.762504	0.014772
144	N	0.214061	0.526628	0.312785
145	H	0.190794	0.50936	0.305732
146	N	0.190971	0.964644	0.359688
147	H	0.184152	0.945022	0.378848
148	H	0.176877	0.97504	0.363263
149	C	0.141529	0.819156	0.344585
150	N	0.16236	0.805566	0.344673
151	C	0.196948	0.825573	0.344504
152	N	0.210539	0.859994	0.344673
153	C	0.190532	0.874577	0.344565
154	N	0.156113	0.853746	0.344744
155	N	0.203141	0.908764	0.346449
156	N	0.218529	0.812966	0.346355
157	H	0.208307	0.673576	0.318042
158	N	0.193863	0.71082	0.368436
159	H	0.18082	0.71865	0.385469
160	H	0.187856	0.687553	0.375468
161	C	0.21219	0.780404	0.349484
162	H	0.186943	0.762504	0.348103
163	N	0.214061	0.526628	0.646119
164	H	0.190794	0.50936	0.639066
165	N	0.190971	0.964644	0.693023
166	H	0.184152	0.945022	0.71218
167	H	0.176877	0.97504	0.696595
168	C	0.141529	0.819156	0.677921
169	N	0.16236	0.805566	0.678009
170	C	0.196948	0.825573	0.67784
171	N	0.210539	0.859994	0.678005
172	C	0.190532	0.874577	0.677901
173	N	0.156113	0.853746	0.678076
174	N	0.203141	0.908764	0.679785
175	N	0.218529	0.812966	0.679687
176	H	0.208307	0.673576	0.651376
177	N	0.193863	0.71082	0.701771
178	H	0.18082	0.71865	0.718801
179	H	0.187856	0.687553	0.708801
180	C	0.21219	0.780404	0.682817
181	H	0.186943	0.762504	0.681439
182	N	0.214061	0.526628	0.979452
183	H	0.190794	0.50936	0.972399
184	N	0.190971	0.964644	0.026355
185	H	0.184152	0.945022	0.045513
186	H	0.176877	0.97504	0.02993
187	N	0.300799	0.199904	0.00162
188	C	0.236623	0.26909	0.016494
189	C	0.224973	0.23331	0.016871
190	C	0.246916	0.220874	0.002313
191	C	0.282729	0.243785	0.331314
192	C	0.294382	0.27957	0.330902
193	C	0.272428	0.291993	0.345453
194	N	0.232761	0.187733	0.988257
195	H	0.245631	0.181024	0.968988
196	N	0.286603	0.325092	0.35961
197	H	0.273878	0.332225	0.378473
198	C	0.24702	0.470731	0.016616
199	C	0.2828	0.494866	0.017015
200	C	0.295233	0.029239	0.002454
201	C	0.272322	0.042141	0.331436
202	C	0.236542	0.018006	0.331045
203	C	0.224105	0.483628	0.345605
204	H	0.297443	0.465361	0.052271
205	H	0.221897	0.0475	0.295764
206	C	0.235705	0.434985	0.016239
207	H	0.253606	0.427638	0.014836
208	C	0.283628	0.077884	0.331825
209	H	0.265723	0.085229	0.333217
210	N	0.300799	0.199904	0.334954
211	C	0.236623	0.26909	0.349829
212	C	0.224973	0.23331	0.350204
213	C	0.246916	0.220874	0.335647
214	C	0.282729	0.243785	0.664649
215	C	0.294382	0.27957	0.664233
216	C	0.272428	0.291993	0.678785
217	N	0.232761	0.187733	0.32159
218	H	0.245631	0.181024	0.302321
219	N	0.286603	0.325092	0.692945
220	H	0.273878	0.332225	0.711809
221	C	0.24702	0.470731	0.34995
222	C	0.2828	0.494866	0.350349
223	C	0.295233	0.029239	0.335787
224	C	0.272322	0.042141	0.66477
225	C	0.236542	0.018006	0.664379
226	C	0.224105	0.483628	0.678941
227	H	0.297443	0.465361	0.385604
228	H	0.221897	0.0475	0.629096
229	C	0.235705	0.434985	0.349572
230	H	0.253606	0.427638	0.348171
231	C	0.283628	0.077884	0.665158
232	H	0.265723	0.085229	0.666549
233	N	0.300799	0.199904	0.668288
234	C	0.236623	0.26909	0.683161
235	C	0.224973	0.23331	0.683539
236	C	0.246916	0.220874	0.66898
237	C	0.282729	0.243785	0.997981
238	C	0.294382	0.27957	0.997569
239	C	0.272428	0.291993	0.012118
240	N	0.232761	0.187733	0.654922
241	H	0.245631	0.181024	0.635656
242	N	0.286603	0.325092	0.026277
243	H	0.273878	0.332225	0.04514
244	C	0.24702	0.470731	0.683282
245	C	0.2828	0.494866	0.683681
246	C	0.295233	0.029239	0.669119
247	C	0.272322	0.042141	0.998102
248	C	0.236542	0.018006	0.997711
249	C	0.224105	0.483628	0.012272
250	H	0.297443	0.465361	0.718936
251	H	0.221897	0.0475	0.962432
252	C	0.235705	0.434985	0.682904
253	H	0.253606	0.427638	0.681503
254	C	0.283628	0.077884	0.998491
255	H	0.265723	0.085229	0.999885
256	N	0.300799	0.699905	0.00162
257	C	0.236624	0.769092	0.016494
258	C	0.224973	0.73331	0.016871
259	C	0.246916	0.720874	0.002313
260	C	0.282728	0.743784	0.331314
261	C	0.294381	0.779569	0.330902
262	C	0.272429	0.791994	0.345453
263	N	0.232761	0.687734	0.988257
264	H	0.245631	0.681024	0.968988
265	N	0.286603	0.825094	0.35961
266	H	0.273877	0.832224	0.378473
267	C	0.24702	0.97073	0.016616
268	C	0.282799	0.994865	0.017015
269	C	0.295232	0.529239	0.002454
270	C	0.272321	0.542141	0.331436
271	C	0.236542	0.518006	0.331045
272	C	0.224105	0.983629	0.345605
273	H	0.297443	0.965363	0.052271
274	H	0.221897	0.547501	0.295764
275	C	0.235704	0.934986	0.016239
276	H	0.253605	0.927637	0.014836
277	C	0.283628	0.577885	0.331825
278	H	0.265724	0.585229	0.333217
279	N	0.300799	0.699905	0.334954
280	C	0.236624	0.769092	0.349829
281	C	0.224973	0.73331	0.350204
282	C	0.246916	0.720874	0.335647
283	C	0.282728	0.743784	0.664649
284	C	0.294381	0.779569	0.664233
285	C	0.272429	0.791994	0.678785
286	N	0.232761	0.687734	0.32159
287	H	0.245631	0.681024	0.302321
288	N	0.286603	0.825094	0.692945
289	H	0.273877	0.832224	0.711809
290	C	0.24702	0.97073	0.34995
291	C	0.282799	0.994865	0.350349
292	C	0.295232	0.529239	0.335787
293	C	0.272321	0.542141	0.66477
294	C	0.236542	0.518006	0.664379
295	C	0.224105	0.983629	0.678941
296	H	0.297443	0.965363	0.385604
297	H	0.221897	0.547501	0.629096
298	C	0.235704	0.934986	0.349572
299	H	0.253605	0.927637	0.348171
300	C	0.283628	0.577885	0.665158
301	H	0.265724	0.585229	0.666549
302	N	0.300799	0.699905	0.668288
303	C	0.236624	0.769092	0.683161
304	C	0.224973	0.73331	0.683539
305	C	0.246916	0.720874	0.66898
306	C	0.282728	0.743784	0.997981
307	C	0.294381	0.779569	0.997569
308	C	0.272429	0.791994	0.012118
309	N	0.232761	0.687734	0.654922
310	H	0.245631	0.681024	0.635656
311	N	0.286603	0.825094	0.026277
312	H	0.273877	0.832224	0.04514
313	C	0.24702	0.97073	0.683282
314	C	0.282799	0.994865	0.683681
315	C	0.295232	0.529239	0.669119
316	C	0.272321	0.542141	0.998102
317	C	0.236542	0.518006	0.997711
318	C	0.224105	0.983629	0.012272
319	H	0.297443	0.965363	0.718936
320	H	0.221897	0.547501	0.962432
321	C	0.235704	0.934986	0.682904
322	H	0.253605	0.927637	0.681503
323	C	0.283628	0.577885	0.998491
324	H	0.265724	0.585229	0.999885
325	C	0.377796	0.193713	0.003535
326	N	0.356964	0.2073	0.0034
327	C	0.322374	0.187292	0.003535
328	N	0.308789	0.152873	0.003373
329	C	0.328798	0.138293	0.003518
330	N	0.363218	0.159125	0.003376
331	N	0.411982	0.215304	0.001674
332	N	0.316192	0.104106	0.001634
333	N	0.325547	0.302065	0.312757
334	H	0.338316	0.294043	0.295495
335	H	0.331285	0.325209	0.305481
336	H	0.311079	0.339426	0.362956
337	C	0.307165	0.232475	0.331798
338	H	0.332412	0.250375	0.333209
339	N	0.328379	0.048235	0.988422
340	H	0.342551	0.03793	0.984898
341	H	0.335095	0.067794	0.969161
342	N	0.305279	0.486233	0.035258
343	H	0.328549	0.503496	0.042307
344	C	0.486868	0.26923	0.002768
345	C	0.473961	0.233441	0.331456
346	C	0.498096	0.221794	0.330874
347	N	0.46792	0.283457	0.988926
348	H	0.477965	0.307929	0.985802
349	H	0.448107	0.270766	0.969954
350	N	0.489467	0.190745	0.312424
351	H	0.468589	0.177765	0.295383
352	H	0.506719	0.184756	0.305262
353	C	0.438219	0.208993	0.331804
354	H	0.430886	0.183745	0.333074
355	C	0.377796	0.193713	0.336868
356	N	0.356964	0.2073	0.336733
357	C	0.322374	0.187292	0.336867
358	N	0.308789	0.152873	0.336706
359	C	0.328798	0.138293	0.336852
360	N	0.363218	0.159125	0.336708
361	N	0.411982	0.215304	0.335006
362	N	0.316192	0.104106	0.334968
363	N	0.325547	0.302065	0.646089
364	H	0.338316	0.294043	0.628829
365	H	0.331285	0.325209	0.638817
366	H	0.311079	0.339426	0.696291
367	C	0.307165	0.232475	0.665131
368	H	0.332412	0.250375	0.666543
369	N	0.328379	0.048235	0.321754
370	H	0.342551	0.03793	0.318232
371	H	0.335095	0.067794	0.302494
372	N	0.305279	0.486233	0.368591
373	H	0.328549	0.503496	0.375641
374	C	0.486868	0.26923	0.336103
375	C	0.473961	0.233441	0.66479
376	C	0.498096	0.221794	0.664206
377	N	0.46792	0.283457	0.322258
378	H	0.477965	0.307929	0.319136
379	H	0.448107	0.270766	0.303287
380	N	0.489467	0.190745	0.645758
381	H	0.468589	0.177765	0.628718
382	H	0.506719	0.184756	0.638594
383	C	0.438219	0.208993	0.665138
384	H	0.430886	0.183745	0.666408
385	C	0.377796	0.193713	0.670203
386	N	0.356964	0.2073	0.670068
387	C	0.322374	0.187292	0.670203
388	N	0.308789	0.152873	0.670041
389	C	0.328798	0.138293	0.670186
390	N	0.363218	0.159125	0.670041
391	N	0.411982	0.215304	0.668339
392	N	0.316192	0.104106	0.668302
393	N	0.325547	0.302065	0.979425
394	H	0.338316	0.294043	0.962162
395	H	0.331285	0.325209	0.972149
396	H	0.311079	0.339426	0.029624
397	C	0.307165	0.232475	0.998464
398	H	0.332412	0.250375	0.999875
399	N	0.328379	0.048235	0.655087
400	H	0.342551	0.03793	0.651565
401	H	0.335095	0.067794	0.635829
402	N	0.305279	0.486233	0.701926
403	H	0.328549	0.503496	0.708973
404	C	0.486868	0.26923	0.669436
405	C	0.473961	0.233441	0.998123
406	C	0.498096	0.221794	0.997542
407	N	0.46792	0.283457	0.65559
408	H	0.477965	0.307929	0.65247
409	H	0.448107	0.270766	0.636622
410	N	0.489467	0.190745	0.97909
411	H	0.468589	0.177765	0.96205
412	H	0.506719	0.184756	0.971929
413	C	0.438219	0.208993	0.99847
414	H	0.430886	0.183745	0.99974
415	C	0.377796	0.693715	0.003535
416	N	0.356963	0.7073	0.0034
417	C	0.322375	0.687293	0.003535
418	N	0.308788	0.652874	0.003373
419	C	0.328797	0.638294	0.003518
420	N	0.363217	0.659125	0.003376
421	N	0.411981	0.715303	0.001674
422	N	0.316192	0.604107	0.001634
423	N	0.325547	0.802066	0.312757
424	H	0.338315	0.794042	0.295495
425	H	0.331286	0.825211	0.305481
426	H	0.311079	0.839427	0.362956
427	C	0.307164	0.732474	0.331798
428	H	0.332411	0.750374	0.333209
429	N	0.328379	0.548234	0.988422
430	H	0.342552	0.537931	0.984898
431	H	0.335095	0.567795	0.969161
432	N	0.305279	0.986235	0.035258
433	H	0.32855	0.003498	0.042307
434	C	0.486868	0.769232	0.002768
435	C	0.473961	0.73344	0.331456
436	C	0.498095	0.721794	0.330874
437	N	0.467919	0.783458	0.988926
438	H	0.477964	0.807928	0.985802
439	H	0.448106	0.770765	0.969954
440	N	0.489466	0.690745	0.312424
441	H	0.468588	0.677764	0.295383
442	H	0.506719	0.684756	0.305262
443	C	0.438218	0.708994	0.331804
444	H	0.430884	0.683745	0.333074
445	C	0.377796	0.693715	0.336868
446	N	0.356963	0.7073	0.336733
447	C	0.322375	0.687293	0.336867
448	N	0.308788	0.652874	0.336706
449	C	0.328797	0.638294	0.336852
450	N	0.363217	0.659125	0.336708
451	N	0.411981	0.715303	0.335006
452	N	0.316192	0.604107	0.334968
453	N	0.325547	0.802066	0.646089
454	H	0.338315	0.794042	0.628829
455	H	0.331286	0.825211	0.638817
456	H	0.311079	0.839427	0.696291
457	C	0.307164	0.732474	0.665131
458	H	0.332411	0.750374	0.666543
459	N	0.328379	0.548234	0.321754
460	H	0.342552	0.537931	0.318232
461	H	0.335095	0.567795	0.302494
462	N	0.305279	0.986235	0.368591
463	H	0.32855	0.003498	0.375641
464	C	0.486868	0.769232	0.336103
465	C	0.473961	0.73344	0.66479
466	C	0.498095	0.721794	0.664206
467	N	0.467919	0.783458	0.322258
468	H	0.477964	0.807928	0.319136
469	H	0.448106	0.770765	0.303287
470	N	0.489466	0.690745	0.645758
471	H	0.468588	0.677764	0.628718
472	H	0.506719	0.684756	0.638594
473	C	0.438218	0.708994	0.665138
474	H	0.430884	0.683745	0.666408
475	C	0.377796	0.693715	0.670203
476	N	0.356963	0.7073	0.670068
477	C	0.322375	0.687293	0.670203
478	N	0.308788	0.652874	0.670041
479	C	0.328797	0.638294	0.670186
480	N	0.363217	0.659125	0.670041
481	N	0.411981	0.715303	0.668339
482	N	0.316192	0.604107	0.668302
483	N	0.325547	0.802066	0.979425
484	H	0.338315	0.794042	0.962162
485	H	0.331286	0.825211	0.972149
486	H	0.311079	0.839427	0.029624
487	C	0.307164	0.732474	0.998464
488	H	0.332411	0.750374	0.999875
489	N	0.328379	0.548234	0.655087
490	H	0.342552	0.537931	0.651565
491	H	0.335095	0.567795	0.635829
492	N	0.305279	0.986235	0.701926
493	H	0.32855	0.003498	0.708973
494	C	0.486868	0.769232	0.669436
495	C	0.473961	0.73344	0.998123
496	C	0.498095	0.721794	0.997542
497	N	0.467919	0.783458	0.65559
498	H	0.477964	0.807928	0.65247
499	H	0.448106	0.770765	0.636622
500	N	0.489466	0.690745	0.97909
501	H	0.468588	0.677764	0.96205
502	H	0.506719	0.684756	0.971929
503	C	0.438218	0.708994	0.99847
504	H	0.430884	0.683745	0.99974
505	C	0.64153	0.319157	0.011253
506	N	0.662361	0.305567	0.011341
507	C	0.696948	0.325574	0.011172
508	N	0.710537	0.359993	0.011339
509	C	0.690531	0.374576	0.011233
510	N	0.656113	0.353747	0.01141
511	N	0.607342	0.297576	0.013133
512	N	0.70314	0.408763	0.013117
513	N	0.718529	0.312965	0.013021
514	C	0.877795	0.193713	0.003535
515	N	0.856962	0.2073	0.0034
516	C	0.822375	0.187292	0.003535
517	N	0.808788	0.152873	0.003373
518	C	0.828797	0.138293	0.003518
519	N	0.863217	0.159125	0.003376
520	N	0.911981	0.215304	0.001674
521	N	0.816191	0.104106	0.001634
522	N	0.800799	0.199904	0.00162
523	C	0.736622	0.26909	0.016494
524	C	0.724973	0.23331	0.016871
525	C	0.746915	0.220874	0.002313
526	C	0.782729	0.243785	0.331314
527	C	0.794383	0.27957	0.330902
528	C	0.772428	0.291993	0.345453
529	N	0.73276	0.187733	0.988257
530	H	0.708307	0.173576	0.984709
531	H	0.745631	0.181024	0.968988
532	N	0.693862	0.210819	0.035104
533	H	0.68082	0.218649	0.052135
534	H	0.687855	0.187553	0.042135
535	N	0.825546	0.302065	0.312757
536	H	0.838314	0.294043	0.295495
537	H	0.831286	0.325209	0.305481
538	N	0.786602	0.325092	0.35961
539	H	0.773877	0.332225	0.378473
540	H	0.811079	0.339426	0.362956
541	C	0.71219	0.280405	0.01615
542	H	0.686943	0.262503	0.014772
543	C	0.807164	0.232475	0.331798
544	H	0.832412	0.250375	0.333209
545	C	0.74702	0.470731	0.016616
546	C	0.7828	0.494866	0.017015
547	C	0.795232	0.029239	0.002454
548	C	0.772321	0.042141	0.331436
549	C	0.736543	0.018006	0.331045
550	C	0.724105	0.483628	0.345605
551	N	0.82838	0.048235	0.988422
552	H	0.842553	0.03793	0.984898
553	H	0.835094	0.067794	0.969161
554	N	0.805278	0.486233	0.035258
555	H	0.797443	0.465361	0.052271
556	H	0.828549	0.503496	0.042307
557	N	0.71406	0.026628	0.312785
558	H	0.721897	0.0475	0.295764
559	H	0.690794	0.009361	0.305732
560	N	0.69097	0.464643	0.359688
561	H	0.684152	0.445023	0.378848
562	H	0.676878	0.475041	0.363263
563	C	0.735704	0.434985	0.016239
564	H	0.753605	0.427638	0.014836
565	C	0.783627	0.077884	0.331825
566	H	0.765725	0.085229	0.333217
567	C	0.545379	0.279486	0.016719
568	C	0.52125	0.291134	0.01733
569	C	0.986867	0.26923	0.002768
570	C	0.97396	0.233441	0.331456
571	C	0.998095	0.221794	0.330874
572	C	0.532473	0.243689	0.34546
573	N	0.967919	0.283457	0.988926
574	H	0.977964	0.307929	0.985802
575	H	0.948106	0.270766	0.969954
576	N	0.529903	0.322196	0.035759
577	H	0.550795	0.335182	0.052769
578	H	0.51266	0.32819	0.042949
579	N	0.989466	0.190745	0.312424
580	H	0.968588	0.177765	0.295383
581	H	0.006718	0.184756	0.305262
582	N	0.551429	0.22946	0.359306
583	H	0.571075	0.242231	0.378524
584	H	0.541326	0.205	0.362524
585	C	0.581128	0.303919	0.01637
586	H	0.588481	0.32917	0.015081
587	C	0.938218	0.208993	0.331804
588	H	0.930884	0.183745	0.333074
589	C	0.64153	0.319157	0.344585
590	N	0.662361	0.305567	0.344673
591	C	0.696948	0.325574	0.344504
592	N	0.710537	0.359993	0.344673
593	C	0.690531	0.374576	0.344565
594	N	0.656113	0.353747	0.344744
595	N	0.607342	0.297576	0.346466
596	N	0.70314	0.408763	0.346449
597	N	0.718529	0.312965	0.346355
598	C	0.877795	0.193713	0.336868
599	N	0.856962	0.2073	0.336733
600	C	0.822375	0.187292	0.336867
601	N	0.808788	0.152873	0.336706
602	C	0.828797	0.138293	0.336852
603	N	0.863217	0.159125	0.336708
604	N	0.911981	0.215304	0.335006
605	N	0.816191	0.104106	0.334968
606	N	0.800799	0.199904	0.334954
607	C	0.736622	0.26909	0.349829
608	C	0.724973	0.23331	0.350204
609	C	0.746915	0.220874	0.335647
610	C	0.782729	0.243785	0.664649
611	C	0.794383	0.27957	0.664233
612	C	0.772428	0.291993	0.678785
613	N	0.73276	0.187733	0.32159
614	H	0.708307	0.173576	0.318042
615	H	0.745631	0.181024	0.302321
616	N	0.693862	0.210819	0.368436
617	H	0.68082	0.218649	0.385469
618	H	0.687855	0.187553	0.375468
619	N	0.825546	0.302065	0.646089
620	H	0.838314	0.294043	0.628829
621	H	0.831286	0.325209	0.638817
622	N	0.786602	0.325092	0.692945
623	H	0.773877	0.332225	0.711809
624	H	0.811079	0.339426	0.696291
625	C	0.71219	0.280405	0.349484
626	H	0.686943	0.262503	0.348103
627	C	0.807164	0.232475	0.665131
628	H	0.832412	0.250375	0.666543
629	C	0.74702	0.470731	0.34995
630	C	0.7828	0.494866	0.350349
631	C	0.795232	0.029239	0.335787
632	C	0.772321	0.042141	0.66477
633	C	0.736543	0.018006	0.664379
634	C	0.724105	0.483628	0.678941
635	N	0.82838	0.048235	0.321754
636	H	0.842553	0.03793	0.318232
637	H	0.835094	0.067794	0.302494
638	N	0.805278	0.486233	0.368591
639	H	0.797443	0.465361	0.385604
640	H	0.828549	0.503496	0.375641
641	N	0.71406	0.026628	0.646119
642	H	0.721897	0.0475	0.629096
643	H	0.690794	0.009361	0.639066
644	N	0.69097	0.464643	0.693023
645	H	0.684152	0.445023	0.71218
646	H	0.676878	0.475041	0.696595
647	C	0.735704	0.434985	0.349572
648	H	0.753605	0.427638	0.348171
649	C	0.783627	0.077884	0.665158
650	H	0.765725	0.085229	0.666549
651	C	0.545379	0.279486	0.350052
652	C	0.52125	0.291134	0.350663
653	C	0.986867	0.26923	0.336103
654	C	0.97396	0.233441	0.66479
655	C	0.998095	0.221794	0.664206
656	C	0.532473	0.243689	0.678792
657	N	0.967919	0.283457	0.322258
658	H	0.977964	0.307929	0.319136
659	H	0.948106	0.270766	0.303287
660	N	0.529903	0.322196	0.369091
661	H	0.550795	0.335182	0.386104
662	H	0.51266	0.32819	0.376282
663	N	0.989466	0.190745	0.645758
664	H	0.968588	0.177765	0.628718
665	H	0.006718	0.184756	0.638594
666	N	0.551429	0.22946	0.692638
667	H	0.571075	0.242231	0.711856
668	H	0.541326	0.205	0.695859
669	C	0.581128	0.303919	0.349704
670	H	0.588481	0.32917	0.348414
671	C	0.938218	0.208993	0.665138
672	H	0.930884	0.183745	0.666408
673	C	0.64153	0.319157	0.677921
674	N	0.662361	0.305567	0.678009
675	C	0.696948	0.325574	0.67784
676	N	0.710537	0.359993	0.678005
677	C	0.690531	0.374576	0.677901
678	N	0.656113	0.353747	0.678076
679	N	0.607342	0.297576	0.679798
680	N	0.70314	0.408763	0.679785
681	N	0.718529	0.312965	0.679687
682	C	0.877795	0.193713	0.670203
683	N	0.856962	0.2073	0.670068
684	C	0.822375	0.187292	0.670203
685	N	0.808788	0.152873	0.670041
686	C	0.828797	0.138293	0.670186
687	N	0.863217	0.159125	0.670041
688	N	0.911981	0.215304	0.668339
689	N	0.816191	0.104106	0.668302
690	N	0.800799	0.199904	0.668288
691	C	0.736622	0.26909	0.683161
692	C	0.724973	0.23331	0.683539
693	C	0.746915	0.220874	0.66898
694	C	0.782729	0.243785	0.997981
695	C	0.794383	0.27957	0.997569
696	C	0.772428	0.291993	0.012118
697	N	0.73276	0.187733	0.654922
698	H	0.708307	0.173576	0.651376
699	H	0.745631	0.181024	0.635656
700	N	0.693862	0.210819	0.701771
701	H	0.68082	0.218649	0.718801
702	H	0.687855	0.187553	0.708801
703	N	0.825546	0.302065	0.979425
704	H	0.838314	0.294043	0.962162
705	H	0.831286	0.325209	0.972149
706	N	0.786602	0.325092	0.026277
707	H	0.773877	0.332225	0.04514
708	H	0.811079	0.339426	0.029624
709	C	0.71219	0.280405	0.682817
710	H	0.686943	0.262503	0.681439
711	C	0.807164	0.232475	0.998464
712	H	0.832412	0.250375	0.999875
713	C	0.74702	0.470731	0.683282
714	C	0.7828	0.494866	0.683681
715	C	0.795232	0.029239	0.669119
716	C	0.772321	0.042141	0.998102
717	C	0.736543	0.018006	0.997711
718	C	0.724105	0.483628	0.012272
719	N	0.82838	0.048235	0.655087
720	H	0.842553	0.03793	0.651565
721	H	0.835094	0.067794	0.635829
722	N	0.805278	0.486233	0.701926
723	H	0.797443	0.465361	0.718936
724	H	0.828549	0.503496	0.708973
725	N	0.71406	0.026628	0.979452
726	H	0.721897	0.0475	0.962432
727	H	0.690794	0.009361	0.972399
728	N	0.69097	0.464643	0.026355
729	H	0.684152	0.445023	0.045513
730	H	0.676878	0.475041	0.02993
731	C	0.735704	0.434985	0.682904
732	H	0.753605	0.427638	0.681503
733	C	0.783627	0.077884	0.998491
734	H	0.765725	0.085229	0.999885
735	C	0.545379	0.279486	0.683384
736	C	0.52125	0.291134	0.683995
737	C	0.986867	0.26923	0.669436
738	C	0.97396	0.233441	0.998123
739	C	0.998095	0.221794	0.997542
740	C	0.532473	0.243689	0.012125
741	N	0.967919	0.283457	0.65559
742	H	0.977964	0.307929	0.65247
743	H	0.948106	0.270766	0.636622
744	N	0.529903	0.322196	0.702426
745	H	0.550795	0.335182	0.719436
746	H	0.51266	0.32819	0.709614
747	N	0.989466	0.190745	0.97909
748	H	0.968588	0.177765	0.96205
749	H	0.006718	0.184756	0.971929
750	N	0.551429	0.22946	0.025972
751	H	0.571075	0.242231	0.04519
752	H	0.541326	0.205	0.029191
753	C	0.581128	0.303919	0.683036
754	H	0.588481	0.32917	0.68175
755	C	0.938218	0.208993	0.99847
756	H	0.930884	0.183745	0.99974
757	C	0.64153	0.819156	0.011253
758	N	0.662359	0.805566	0.011341
759	C	0.696948	0.825573	0.011172
760	N	0.710539	0.859994	0.011339
761	C	0.690531	0.874577	0.011233
762	N	0.656112	0.853746	0.01141
763	N	0.607342	0.797575	0.013133
764	N	0.70314	0.908764	0.013117
765	N	0.718529	0.812966	0.013021
766	C	0.877795	0.693715	0.003535
767	N	0.856964	0.7073	0.0034
768	C	0.822374	0.687293	0.003535
769	N	0.808787	0.652874	0.003373
770	C	0.828796	0.638294	0.003518
771	N	0.863216	0.659125	0.003376
772	N	0.911982	0.715303	0.001674
773	N	0.816192	0.604107	0.001634
774	N	0.800798	0.699905	0.00162
775	C	0.736624	0.769092	0.016494
776	C	0.724972	0.73331	0.016871
777	C	0.746916	0.720874	0.002313
778	C	0.782728	0.743784	0.331314
779	C	0.794381	0.779569	0.330902
780	C	0.772428	0.791994	0.345453
781	N	0.732762	0.687734	0.988257
782	H	0.708306	0.673576	0.984709
783	H	0.74563	0.681024	0.968988
784	N	0.693864	0.71082	0.035104
785	H	0.68082	0.71865	0.052135
786	H	0.687856	0.687553	0.042135
787	N	0.825548	0.802066	0.312757
788	H	0.838315	0.794042	0.295495
789	H	0.831285	0.825211	0.305481
790	N	0.786604	0.825094	0.35961
791	H	0.773877	0.832224	0.378473
792	H	0.811079	0.839427	0.362956
793	C	0.712191	0.780404	0.01615
794	H	0.686943	0.762504	0.014772
795	C	0.807163	0.732474	0.331798
796	H	0.832411	0.750374	0.333209
797	C	0.747019	0.97073	0.016616
798	C	0.782799	0.994865	0.017015
799	C	0.795231	0.529239	0.002454
800	C	0.772322	0.542141	0.331436
801	C	0.736542	0.518006	0.331045
802	C	0.724104	0.983629	0.345605
803	N	0.828379	0.548234	0.988422
804	H	0.842552	0.537931	0.984898
805	H	0.835095	0.567795	0.969161
806	N	0.805278	0.986235	0.035258
807	H	0.797443	0.965363	0.052271
808	H	0.828548	0.003498	0.042307
809	N	0.714061	0.526628	0.312785
810	H	0.721896	0.547501	0.295764
811	H	0.690792	0.50936	0.305732
812	N	0.69097	0.964644	0.359688
813	H	0.684152	0.945022	0.378848
814	H	0.676877	0.97504	0.363263
815	C	0.735705	0.934986	0.016239
816	H	0.753606	0.927637	0.014836
817	C	0.783629	0.577885	0.331825
818	H	0.765723	0.585229	0.333217
819	C	0.545381	0.779487	0.016719
820	C	0.52125	0.791136	0.01733
821	C	0.986867	0.769232	0.002768
822	C	0.973961	0.73344	0.331456
823	C	0.998096	0.721794	0.330874
824	C	0.532474	0.74369	0.34546
825	N	0.967918	0.783458	0.988926
826	H	0.977965	0.807928	0.985802
827	H	0.948106	0.770765	0.969954
828	N	0.529901	0.822195	0.035759
829	H	0.550795	0.835184	0.052769
830	H	0.512658	0.828189	0.042949
831	N	0.989465	0.690745	0.312424
832	H	0.968587	0.677764	0.295383
833	H	0.006717	0.684756	0.305262
834	N	0.551429	0.729461	0.359306
835	H	0.571074	0.742231	0.378524
836	H	0.541326	0.704999	0.362524
837	C	0.581127	0.803921	0.01637
838	H	0.588481	0.829172	0.015081
839	C	0.938217	0.708994	0.331804
840	H	0.930883	0.683745	0.333074
841	C	0.64153	0.819156	0.344585
842	N	0.662359	0.805566	0.344673
843	C	0.696948	0.825573	0.344504
844	N	0.710539	0.859994	0.344673
845	C	0.690531	0.874577	0.344565
846	N	0.656112	0.853746	0.344744
847	N	0.607342	0.797575	0.346466
848	N	0.70314	0.908764	0.346449
849	N	0.718529	0.812966	0.346355
850	C	0.877795	0.693715	0.336868
851	N	0.856964	0.7073	0.336733
852	C	0.822374	0.687293	0.336867
853	N	0.808787	0.652874	0.336706
854	C	0.828796	0.638294	0.336852
855	N	0.863216	0.659125	0.336708
856	N	0.911982	0.715303	0.335006
857	N	0.816192	0.604107	0.334968
858	N	0.800798	0.699905	0.334954
859	C	0.736624	0.769092	0.349829
860	C	0.724972	0.73331	0.350204
861	C	0.746916	0.720874	0.335647
862	C	0.782728	0.743784	0.664649
863	C	0.794381	0.779569	0.664233
864	C	0.772428	0.791994	0.678785
865	N	0.732762	0.687734	0.32159
866	H	0.708306	0.673576	0.318042
867	H	0.74563	0.681024	0.302321
868	N	0.693864	0.71082	0.368436
869	H	0.68082	0.71865	0.385469
870	H	0.687856	0.687553	0.375468
871	N	0.825548	0.802066	0.646089
872	H	0.838315	0.794042	0.628829
873	H	0.831285	0.825211	0.638817
874	N	0.786604	0.825094	0.692945
875	H	0.773877	0.832224	0.711809
876	H	0.811079	0.839427	0.696291
877	C	0.712191	0.780404	0.349484
878	H	0.686943	0.762504	0.348103
879	C	0.807163	0.732474	0.665131
880	H	0.832411	0.750374	0.666543
881	C	0.747019	0.97073	0.34995
882	C	0.782799	0.994865	0.350349
883	C	0.795231	0.529239	0.335787
884	C	0.772322	0.542141	0.66477
885	C	0.736542	0.518006	0.664379
886	C	0.724104	0.983629	0.678941
887	N	0.828379	0.548234	0.321754
888	H	0.842552	0.537931	0.318232
889	H	0.835095	0.567795	0.302494
890	N	0.805278	0.986235	0.368591
891	H	0.797443	0.965363	0.385604
892	H	0.828548	0.003498	0.375641
893	N	0.714061	0.526628	0.646119
894	H	0.721896	0.547501	0.629096
895	H	0.690792	0.50936	0.639066
896	N	0.69097	0.964644	0.693023
897	H	0.684152	0.945022	0.71218
898	H	0.676877	0.97504	0.696595
899	C	0.735705	0.934986	0.349572
900	H	0.753606	0.927637	0.348171
901	C	0.783629	0.577885	0.665158
902	H	0.765723	0.585229	0.666549
903	C	0.545381	0.779487	0.350052
904	C	0.52125	0.791136	0.350663
905	C	0.986867	0.769232	0.336103
906	C	0.973961	0.73344	0.66479
907	C	0.998096	0.721794	0.664206
908	C	0.532474	0.74369	0.678792
909	N	0.967918	0.783458	0.322258
910	H	0.977965	0.807928	0.319136
911	H	0.948106	0.770765	0.303287
912	N	0.529901	0.822195	0.369091
913	H	0.550795	0.835184	0.386104
914	H	0.512658	0.828189	0.376282
915	N	0.989465	0.690745	0.645758
916	H	0.968587	0.677764	0.628718
917	H	0.006717	0.684756	0.638594
918	N	0.551429	0.729461	0.692638
919	H	0.571074	0.742231	0.711856
920	H	0.541326	0.704999	0.695859
921	C	0.581127	0.803921	0.349704
922	H	0.588481	0.829172	0.348414
923	C	0.938217	0.708994	0.665138
924	H	0.930883	0.683745	0.666408
925	C	0.64153	0.819156	0.677921
926	N	0.662359	0.805566	0.678009
927	C	0.696948	0.825573	0.67784
928	N	0.710539	0.859994	0.678005
929	C	0.690531	0.874577	0.677901
930	N	0.656112	0.853746	0.678076
931	N	0.607342	0.797575	0.679798
932	N	0.70314	0.908764	0.679785
933	N	0.718529	0.812966	0.679687
934	C	0.877795	0.693715	0.670203
935	N	0.856964	0.7073	0.670068
936	C	0.822374	0.687293	0.670203
937	N	0.808787	0.652874	0.670041
938	C	0.828796	0.638294	0.670186
939	N	0.863216	0.659125	0.670041
940	N	0.911982	0.715303	0.668339
941	N	0.816192	0.604107	0.668302
942	N	0.800798	0.699905	0.668288
943	C	0.736624	0.769092	0.683161
944	C	0.724972	0.73331	0.683539
945	C	0.746916	0.720874	0.66898
946	C	0.782728	0.743784	0.997981
947	C	0.794381	0.779569	0.997569
948	C	0.772428	0.791994	0.012118
949	N	0.732762	0.687734	0.654922
950	H	0.708306	0.673576	0.651376
951	H	0.74563	0.681024	0.635656
952	N	0.693864	0.71082	0.701771
953	H	0.68082	0.71865	0.718801
954	H	0.687856	0.687553	0.708801
955	N	0.825548	0.802066	0.979425
956	H	0.838315	0.794042	0.962162
957	H	0.831285	0.825211	0.972149
958	N	0.786604	0.825094	0.026277
959	H	0.773877	0.832224	0.04514
960	H	0.811079	0.839427	0.029624
961	C	0.712191	0.780404	0.682817
962	H	0.686943	0.762504	0.681439
963	C	0.807163	0.732474	0.998464
964	H	0.832411	0.750374	0.999875
965	C	0.747019	0.97073	0.683282
966	C	0.782799	0.994865	0.683681
967	C	0.795231	0.529239	0.669119
968	C	0.772322	0.542141	0.998102
969	C	0.736542	0.518006	0.997711
970	C	0.724104	0.983629	0.012272
971	N	0.828379	0.548234	0.655087
972	H	0.842552	0.537931	0.651565
973	H	0.835095	0.567795	0.635829
974	N	0.805278	0.986235	0.701926
975	H	0.797443	0.965363	0.718936
976	H	0.828548	0.003498	0.708973
977	N	0.714061	0.526628	0.979452
978	H	0.721896	0.547501	0.962432
979	H	0.690792	0.50936	0.972399
980	N	0.69097	0.964644	0.026355
981	H	0.684152	0.945022	0.045513
982	H	0.676877	0.97504	0.02993
983	C	0.735705	0.934986	0.682904
984	H	0.753606	0.927637	0.681503
985	C	0.783629	0.577885	0.998491
986	H	0.765723	0.585229	0.999885
987	C	0.545381	0.779487	0.683384
988	C	0.52125	0.791136	0.683995
989	C	0.986867	0.769232	0.669436
990	C	0.973961	0.73344	0.998123
991	C	0.998096	0.721794	0.997542
992	C	0.532474	0.74369	0.012125
993	N	0.967918	0.783458	0.65559
994	H	0.977965	0.807928	0.65247
995	H	0.948106	0.770765	0.636622
996	N	0.529901	0.822195	0.702426
997	H	0.550795	0.835184	0.719436
998	H	0.512658	0.828189	0.709614
999	N	0.989465	0.690745	0.97909
1000	H	0.968587	0.677764	0.96205
1001	H	0.006717	0.684756	0.971929
1002	N	0.551429	0.729461	0.025972
1003	H	0.571074	0.742231	0.04519
1004	H	0.541326	0.704999	0.029191
1005	C	0.581127	0.803921	0.683036
1006	H	0.588481	0.829172	0.68175
1007	C	0.938217	0.708994	0.99847
1008	H	0.930883	0.683745	0.99974
