data_C324H144N216O144_2018-02-15_10:32:35
#******************************************
#
# CIF file created by Zeo++
# Zeo++ is an open source package to
# analyze microporous materials
#
#*******************************************

_cell_length_a		43.1534   
_cell_length_b		43.1534   
_cell_length_c		30.1028   
_cell_angle_alpha		90   
_cell_angle_beta		90   
_cell_angle_gamma		120   

_symmetry_space_group_name_H-M		'P1'
_symmetry_Int_Tables_number		1
_symmetry_cell_setting		Monoclinic

loop_
_symmetry_equiv_pos_as_xyz
'+x,+y,+z'

loop_
_atom_site_label
_atom_site_type_symbol
_atom_site_fract_x
_atom_site_fract_y
_atom_site_fract_z
1	C	0.12822	0.320446	0.297029
2	N	0.153157	0.355799	0.964003
3	C	0.188796	0.367487	0.963661
4	N	0.199218	0.342557	0.96401
5	C	0.175274	0.306915	0.963698
6	N	0.139922	0.296503	0.96405
7	C	0.214334	0.403905	0.969072
8	C	0.186147	0.28138	0.969185
9	C	0.091809	0.309556	0.969165
10	O	0.159748	0.246763	0.973032
11	O	0.083576	0.335947	0.972979
12	O	0.24895	0.41212	0.972929
13	C	0.366718	0.176414	0.382074
14	N	0.341986	0.141002	0.048398
15	C	0.306268	0.128997	0.048678
16	N	0.295589	0.153727	0.048403
17	C	0.319302	0.189442	0.048735
18	N	0.354715	0.200126	0.048454
19	C	0.280945	0.092416	0.043948
20	C	0.308056	0.214778	0.044052
21	C	0.403298	0.187656	0.044048
22	O	0.334177	0.24952	0.040425
23	O	0.411904	0.161528	0.040336
24	O	0.246205	0.083796	0.040296
25	C	0.259293	0.226055	0.025914
26	N	0.281531	0.259733	0.343725
27	C	0.270604	0.281639	0.32644
28	C	0.23364	0.269298	0.323098
29	N	0.211415	0.235855	0.005675
30	C	0.221969	0.213622	0.023295
31	H	0.289285	0.306578	0.315797
32	C	0.195669	0.180832	0.039664
33	O	0.168736	0.163695	0.017244
34	O	0.191272	0.175605	0.080163
35	H	0.207492	0.188022	0.100745
36	N	0.221202	0.290667	0.307395
37	H	0.239189	0.31537	0.300758
38	N	0.272822	0.205157	0.040294
39	H	0.255491	0.180245	0.04654
40	C	0.269685	0.032388	0.025783
41	N	0.235999	0.020941	0.343622
42	C	0.214086	0.488104	0.326348
43	C	0.22643	0.463484	0.322991
44	N	0.259881	0.474707	0.005548
45	C	0.282114	0.007493	0.023168
46	H	0.189144	0.481843	0.315724
47	C	0.314921	0.013998	0.039495
48	O	0.332048	0.504207	0.017046
49	O	0.320176	0.01483	0.079987
50	H	0.307769	0.01863	0.100587
51	N	0.205052	0.429676	0.307297
52	H	0.180347	0.422957	0.300679
53	N	0.290577	0.066811	0.040179
54	H	0.315488	0.074394	0.046432
55	C	0.463335	0.236426	0.025908
56	N	0.474772	0.214186	0.343712
57	C	0.007605	0.225105	0.326426
58	C	0.032235	0.262068	0.323092
59	N	0.021023	0.284296	0.005678
60	C	0.488234	0.273751	0.023297
61	H	0.013855	0.206422	0.315778
62	C	0.481706	0.300006	0.039698
63	O	0.991784	0.327008	0.017286
64	O	0.480933	0.304662	0.080105
65	H	0.477106	0.288513	0.100792
66	N	0.066042	0.274503	0.30739
67	H	0.072758	0.256515	0.300764
68	N	0.42891	0.222891	0.040305
69	H	0.421336	0.240221	0.046575
70	C	0.12822	0.320446	0.630363
71	N	0.153157	0.355799	0.297336
72	C	0.188796	0.367487	0.296995
73	N	0.199218	0.342557	0.297344
74	C	0.175274	0.306915	0.297032
75	N	0.139922	0.296503	0.297384
76	C	0.214334	0.403905	0.302405
77	C	0.186147	0.28138	0.302519
78	C	0.091809	0.309556	0.302497
79	O	0.159748	0.246763	0.306364
80	O	0.083576	0.335947	0.306313
81	O	0.24895	0.41212	0.306264
82	C	0.366718	0.176414	0.715405
83	N	0.341986	0.141002	0.381732
84	C	0.306268	0.128997	0.382011
85	N	0.295589	0.153727	0.381735
86	C	0.319302	0.189442	0.382067
87	N	0.354715	0.200126	0.381788
88	C	0.280945	0.092416	0.37728
89	C	0.308056	0.214778	0.377387
90	C	0.403298	0.187656	0.377383
91	O	0.334177	0.24952	0.373759
92	O	0.411904	0.161528	0.373669
93	O	0.246205	0.083796	0.37363
94	C	0.259293	0.226055	0.359249
95	N	0.281531	0.259733	0.677056
96	C	0.270604	0.281639	0.659772
97	C	0.23364	0.269298	0.65643
98	N	0.211415	0.235855	0.339008
99	C	0.221969	0.213622	0.356628
100	H	0.289285	0.306578	0.649129
101	C	0.195669	0.180832	0.372998
102	O	0.168736	0.163695	0.350579
103	O	0.191272	0.175605	0.413496
104	H	0.207492	0.188022	0.434079
105	N	0.221202	0.290667	0.640728
106	H	0.239189	0.31537	0.63409
107	N	0.272822	0.205157	0.373626
108	H	0.255491	0.180245	0.379872
109	C	0.269685	0.032388	0.359116
110	N	0.235999	0.020941	0.676953
111	C	0.214086	0.488104	0.659679
112	C	0.22643	0.463484	0.656324
113	N	0.259881	0.474707	0.338882
114	C	0.282114	0.007493	0.356502
115	H	0.189144	0.481843	0.649056
116	C	0.314921	0.013998	0.372829
117	O	0.332048	0.504207	0.350379
118	O	0.320176	0.01483	0.41332
119	H	0.307769	0.01863	0.43392
120	N	0.205052	0.429676	0.640631
121	H	0.180347	0.422957	0.634014
122	N	0.290577	0.066811	0.373513
123	H	0.315488	0.074394	0.379765
124	C	0.463335	0.236426	0.359242
125	N	0.474772	0.214186	0.677046
126	C	0.007605	0.225105	0.659759
127	C	0.032235	0.262068	0.656424
128	N	0.021023	0.284296	0.339012
129	C	0.488234	0.273751	0.356631
130	H	0.013855	0.206422	0.649112
131	C	0.481706	0.300006	0.373032
132	O	0.991784	0.327008	0.350618
133	O	0.480933	0.304662	0.41344
134	H	0.477106	0.288513	0.434126
135	N	0.066042	0.274503	0.640724
136	H	0.072758	0.256515	0.634097
137	N	0.42891	0.222891	0.373636
138	H	0.421336	0.240221	0.379908
139	C	0.12822	0.320446	0.963698
140	N	0.153157	0.355799	0.630669
141	C	0.188796	0.367487	0.63033
142	N	0.199218	0.342557	0.630679
143	C	0.175274	0.306915	0.630366
144	N	0.139922	0.296503	0.630719
145	C	0.214334	0.403905	0.635738
146	C	0.186147	0.28138	0.635851
147	C	0.091809	0.309556	0.635831
148	O	0.159748	0.246763	0.639698
149	O	0.083576	0.335947	0.639648
150	O	0.24895	0.41212	0.639598
151	C	0.366718	0.176414	0.04874
152	N	0.341986	0.141002	0.715066
153	C	0.306268	0.128997	0.715345
154	N	0.295589	0.153727	0.71507
155	C	0.319302	0.189442	0.715402
156	N	0.354715	0.200126	0.715119
157	C	0.280945	0.092416	0.710615
158	C	0.308056	0.214778	0.710718
159	C	0.403298	0.187656	0.710714
160	O	0.334177	0.24952	0.70709
161	O	0.411904	0.161528	0.707004
162	O	0.246205	0.083796	0.706964
163	C	0.259293	0.226055	0.69258
164	N	0.281531	0.259733	0.010391
165	C	0.270604	0.281639	0.993107
166	C	0.23364	0.269298	0.989765
167	N	0.211415	0.235855	0.672343
168	C	0.221969	0.213622	0.689962
169	H	0.289285	0.306578	0.982463
170	C	0.195669	0.180832	0.706333
171	O	0.168736	0.163695	0.68391
172	O	0.191272	0.175605	0.746831
173	H	0.207492	0.188022	0.767413
174	N	0.221202	0.290667	0.974062
175	H	0.239189	0.31537	0.967425
176	N	0.272822	0.205157	0.706961
177	H	0.255491	0.180245	0.713206
178	C	0.269685	0.032388	0.69245
179	N	0.235999	0.020941	0.010288
180	C	0.214086	0.488104	0.993014
181	C	0.22643	0.463484	0.989659
182	N	0.259881	0.474707	0.672213
183	C	0.282114	0.007493	0.689833
184	H	0.189144	0.481843	0.98239
185	C	0.314921	0.013998	0.70616
186	O	0.332048	0.504207	0.683714
187	O	0.320176	0.01483	0.746655
188	H	0.307769	0.01863	0.767254
189	N	0.205052	0.429676	0.973962
190	H	0.180347	0.422957	0.967345
191	N	0.290577	0.066811	0.706844
192	H	0.315488	0.074394	0.7131
193	C	0.463335	0.236426	0.692573
194	N	0.474772	0.214186	0.010378
195	C	0.007605	0.225105	0.993093
196	C	0.032235	0.262068	0.989758
197	N	0.021023	0.284296	0.672346
198	C	0.488234	0.273751	0.689966
199	H	0.013855	0.206422	0.982443
200	C	0.481706	0.300006	0.706366
201	O	0.991784	0.327008	0.683953
202	O	0.480933	0.304662	0.746771
203	H	0.477106	0.288513	0.76746
204	N	0.066042	0.274503	0.974055
205	H	0.072758	0.256515	0.967431
206	N	0.42891	0.222891	0.706971
207	H	0.421336	0.240221	0.713242
208	C	0.128219	0.820445	0.297029
209	N	0.153156	0.855798	0.964003
210	C	0.188797	0.867488	0.963661
211	N	0.199219	0.842558	0.96401
212	C	0.175275	0.806916	0.963698
213	N	0.139921	0.796502	0.96405
214	C	0.214336	0.903906	0.969072
215	C	0.186148	0.781381	0.969185
216	C	0.091808	0.809554	0.969165
217	O	0.159748	0.746764	0.973032
218	O	0.083576	0.835948	0.972979
219	O	0.248951	0.912121	0.972929
220	C	0.366718	0.676414	0.382074
221	N	0.341987	0.641003	0.048398
222	C	0.306268	0.628996	0.048678
223	N	0.295589	0.653729	0.048403
224	C	0.319303	0.689443	0.048735
225	N	0.354715	0.700127	0.048454
226	C	0.280945	0.592415	0.043948
227	C	0.308056	0.714777	0.044052
228	C	0.403299	0.687655	0.044048
229	O	0.334177	0.74952	0.040425
230	O	0.411905	0.661529	0.040336
231	O	0.246205	0.583797	0.040296
232	C	0.259294	0.726056	0.025914
233	N	0.281531	0.759733	0.343725
234	C	0.270605	0.78164	0.32644
235	C	0.23364	0.769299	0.323098
236	N	0.211415	0.735855	0.005675
237	C	0.221969	0.713621	0.023295
238	H	0.289284	0.806576	0.315797
239	C	0.195669	0.680832	0.039664
240	O	0.168736	0.663693	0.017244
241	O	0.191272	0.675606	0.080163
242	H	0.207492	0.688022	0.100745
243	N	0.221203	0.790668	0.307395
244	H	0.23919	0.815372	0.300758
245	N	0.272823	0.705158	0.040294
246	H	0.255491	0.680246	0.04654
247	C	0.269686	0.532389	0.025783
248	N	0.235999	0.520942	0.343622
249	C	0.214086	0.988105	0.326348
250	C	0.226429	0.963483	0.322991
251	N	0.25988	0.974705	0.005548
252	C	0.282114	0.507493	0.023168
253	H	0.189145	0.981844	0.315724
254	C	0.314921	0.513998	0.039495
255	O	0.332047	0.004207	0.017046
256	O	0.320175	0.51483	0.079987
257	H	0.307768	0.51863	0.100588
258	N	0.205053	0.929677	0.307297
259	H	0.180346	0.922955	0.300679
260	N	0.290576	0.566811	0.040179
261	H	0.315488	0.574394	0.046432
262	C	0.463336	0.736425	0.025908
263	N	0.474772	0.714186	0.343712
264	C	0.007605	0.725106	0.326426
265	C	0.032235	0.762069	0.323092
266	N	0.021022	0.784295	0.005678
267	C	0.488233	0.773749	0.023297
268	H	0.013855	0.706423	0.315778
269	C	0.481706	0.800004	0.039698
270	O	0.991783	0.827009	0.017286
271	O	0.480934	0.804663	0.080105
272	H	0.477105	0.788512	0.100792
273	N	0.066041	0.774501	0.30739
274	H	0.072759	0.756514	0.300764
275	N	0.428911	0.72289	0.040305
276	H	0.421335	0.740222	0.046575
277	C	0.128219	0.820445	0.630363
278	N	0.153156	0.855798	0.297336
279	C	0.188797	0.867488	0.296995
280	N	0.199219	0.842558	0.297344
281	C	0.175275	0.806916	0.297032
282	N	0.139921	0.796502	0.297384
283	C	0.214336	0.903906	0.302405
284	C	0.186148	0.781381	0.302519
285	C	0.091808	0.809554	0.302497
286	O	0.159748	0.746764	0.306364
287	O	0.083576	0.835948	0.306313
288	O	0.248951	0.912121	0.306264
289	C	0.366718	0.676414	0.715405
290	N	0.341987	0.641003	0.381732
291	C	0.306268	0.628996	0.382011
292	N	0.295589	0.653729	0.381735
293	C	0.319303	0.689443	0.382067
294	N	0.354715	0.700127	0.381788
295	C	0.280945	0.592415	0.37728
296	C	0.308056	0.714777	0.377387
297	C	0.403299	0.687655	0.377383
298	O	0.334177	0.74952	0.373759
299	O	0.411905	0.661529	0.373669
300	O	0.246205	0.583797	0.37363
301	C	0.259294	0.726056	0.359249
302	N	0.281531	0.759733	0.677056
303	C	0.270605	0.78164	0.659772
304	C	0.23364	0.769299	0.65643
305	N	0.211415	0.735855	0.339008
306	C	0.221969	0.713621	0.356628
307	H	0.289284	0.806576	0.649129
308	C	0.195669	0.680832	0.372998
309	O	0.168736	0.663693	0.350579
310	O	0.191272	0.675606	0.413496
311	H	0.207492	0.688022	0.434079
312	N	0.221203	0.790668	0.640728
313	H	0.23919	0.815372	0.63409
314	N	0.272823	0.705158	0.373626
315	H	0.255491	0.680246	0.379872
316	C	0.269686	0.532389	0.359116
317	N	0.235999	0.520942	0.676953
318	C	0.214086	0.988105	0.659679
319	C	0.226429	0.963483	0.656324
320	N	0.25988	0.974705	0.338882
321	C	0.282114	0.507493	0.356502
322	H	0.189145	0.981844	0.649056
323	C	0.314921	0.513998	0.372829
324	O	0.332047	0.004207	0.350379
325	O	0.320175	0.51483	0.41332
326	H	0.307768	0.51863	0.43392
327	N	0.205053	0.929677	0.640631
328	H	0.180346	0.922955	0.634014
329	N	0.290576	0.566811	0.373513
330	H	0.315488	0.574394	0.379765
331	C	0.463336	0.736425	0.359242
332	N	0.474772	0.714186	0.677046
333	C	0.007605	0.725106	0.659759
334	C	0.032235	0.762069	0.656424
335	N	0.021022	0.784295	0.339012
336	C	0.488233	0.773749	0.356631
337	H	0.013855	0.706423	0.649112
338	C	0.481706	0.800004	0.373032
339	O	0.991783	0.827009	0.350618
340	O	0.480934	0.804663	0.41344
341	H	0.477105	0.788512	0.434126
342	N	0.066041	0.774501	0.640724
343	H	0.072759	0.756514	0.634097
344	N	0.428911	0.72289	0.373636
345	H	0.421335	0.740222	0.379908
346	C	0.128219	0.820445	0.963698
347	N	0.153156	0.855798	0.630669
348	C	0.188797	0.867488	0.63033
349	N	0.199219	0.842558	0.630679
350	C	0.175275	0.806916	0.630366
351	N	0.139921	0.796502	0.630719
352	C	0.214336	0.903906	0.635738
353	C	0.186148	0.781381	0.635851
354	C	0.091808	0.809554	0.635831
355	O	0.159748	0.746764	0.639698
356	O	0.083576	0.835948	0.639648
357	O	0.248951	0.912121	0.639598
358	C	0.366718	0.676414	0.04874
359	N	0.341987	0.641003	0.715066
360	C	0.306268	0.628996	0.715345
361	N	0.295589	0.653729	0.71507
362	C	0.319303	0.689443	0.715402
363	N	0.354715	0.700127	0.715119
364	C	0.280945	0.592415	0.710615
365	C	0.308056	0.714777	0.710718
366	C	0.403299	0.687655	0.710714
367	O	0.334177	0.74952	0.70709
368	O	0.411905	0.661529	0.707004
369	O	0.246205	0.583797	0.706964
370	C	0.259294	0.726056	0.69258
371	N	0.281531	0.759733	0.010391
372	C	0.270605	0.78164	0.993107
373	C	0.23364	0.769299	0.989765
374	N	0.211415	0.735855	0.672343
375	C	0.221969	0.713621	0.689962
376	H	0.289284	0.806576	0.982463
377	C	0.195669	0.680832	0.706333
378	O	0.168736	0.663693	0.68391
379	O	0.191272	0.675606	0.746831
380	H	0.207492	0.688022	0.767413
381	N	0.221203	0.790668	0.974062
382	H	0.23919	0.815372	0.967425
383	N	0.272823	0.705158	0.706961
384	H	0.255491	0.680246	0.713206
385	C	0.269686	0.532389	0.69245
386	N	0.235999	0.520942	0.010288
387	C	0.214086	0.988105	0.993014
388	C	0.226429	0.963483	0.989659
389	N	0.25988	0.974705	0.672213
390	C	0.282114	0.507493	0.689836
391	H	0.189145	0.981844	0.98239
392	C	0.314921	0.513998	0.70616
393	O	0.332047	0.004207	0.683714
394	O	0.320175	0.51483	0.746655
395	H	0.307768	0.51863	0.767254
396	N	0.205053	0.929677	0.973962
397	H	0.180346	0.922955	0.967345
398	N	0.290576	0.566811	0.706844
399	H	0.315488	0.574394	0.7131
400	C	0.463336	0.736425	0.692573
401	N	0.474772	0.714186	0.010378
402	C	0.007605	0.725106	0.993093
403	C	0.032235	0.762069	0.989758
404	N	0.021022	0.784295	0.672346
405	C	0.488233	0.773749	0.689966
406	H	0.013855	0.706423	0.982443
407	C	0.481706	0.800004	0.706366
408	O	0.991783	0.827009	0.683953
409	O	0.480934	0.804663	0.746771
410	H	0.477105	0.788512	0.76746
411	N	0.066041	0.774501	0.974055
412	H	0.072759	0.756514	0.967431
413	N	0.428911	0.72289	0.706971
414	H	0.421335	0.740222	0.713242
415	C	0.628221	0.320446	0.297029
416	N	0.653158	0.355799	0.964003
417	C	0.688795	0.367487	0.963661
418	N	0.699218	0.342557	0.96401
419	C	0.675275	0.306915	0.963698
420	N	0.639921	0.296503	0.96405
421	C	0.714334	0.403905	0.969072
422	C	0.686146	0.28138	0.969185
423	C	0.59181	0.309556	0.969165
424	O	0.659747	0.246763	0.973032
425	O	0.583577	0.335947	0.972979
426	O	0.748951	0.41212	0.972929
427	C	0.866718	0.176414	0.382074
428	N	0.841986	0.141002	0.048398
429	C	0.806268	0.128997	0.048678
430	N	0.795588	0.153727	0.048403
431	C	0.819301	0.189442	0.048735
432	N	0.854713	0.200126	0.048454
433	C	0.780945	0.092416	0.043948
434	C	0.808057	0.214778	0.044052
435	C	0.903298	0.187656	0.044048
436	O	0.834176	0.24952	0.040425
437	O	0.911904	0.161528	0.040336
438	O	0.746204	0.083796	0.040296
439	C	0.759294	0.226055	0.025914
440	N	0.78153	0.259733	0.343725
441	C	0.770603	0.281639	0.32644
442	C	0.73364	0.269298	0.323098
443	N	0.711415	0.235855	0.005675
444	C	0.721968	0.213622	0.023295
445	H	0.789285	0.306578	0.315797
446	C	0.695668	0.180832	0.039664
447	O	0.668735	0.163695	0.017244
448	O	0.691271	0.175605	0.080163
449	H	0.707492	0.188022	0.100745
450	N	0.721203	0.290667	0.307395
451	H	0.73919	0.31537	0.300758
452	N	0.772822	0.205157	0.040294
453	H	0.755491	0.180245	0.04654
454	C	0.769685	0.032388	0.025783
455	N	0.735998	0.020941	0.343622
456	C	0.714087	0.488104	0.326348
457	C	0.726431	0.463484	0.322991
458	N	0.75988	0.474707	0.005548
459	C	0.782114	0.007493	0.023168
460	H	0.689143	0.481843	0.315724
461	C	0.814921	0.013998	0.039495
462	O	0.832049	0.504207	0.017046
463	O	0.820174	0.01483	0.079987
464	H	0.807769	0.01863	0.100587
465	N	0.705052	0.429676	0.307297
466	H	0.680347	0.422957	0.300679
467	N	0.790577	0.066811	0.040179
468	H	0.815488	0.074394	0.046432
469	C	0.963335	0.236426	0.025908
470	N	0.974772	0.214186	0.343712
471	C	0.507604	0.225105	0.326426
472	C	0.532235	0.262068	0.323092
473	N	0.521022	0.284296	0.005678
474	C	0.988234	0.273751	0.023297
475	H	0.513856	0.206422	0.315778
476	C	0.981706	0.300006	0.039698
477	O	0.491784	0.327008	0.017286
478	O	0.980933	0.304662	0.080105
479	H	0.977106	0.288513	0.100792
480	N	0.566043	0.274503	0.30739
481	H	0.572758	0.256515	0.300764
482	N	0.92891	0.222891	0.040305
483	H	0.921334	0.240221	0.046575
484	C	0.628221	0.320446	0.630363
485	N	0.653158	0.355799	0.297336
486	C	0.688795	0.367487	0.296995
487	N	0.699218	0.342557	0.297344
488	C	0.675275	0.306915	0.297032
489	N	0.639921	0.296503	0.297384
490	C	0.714334	0.403905	0.302405
491	C	0.686146	0.28138	0.302519
492	C	0.59181	0.309556	0.302497
493	O	0.659747	0.246763	0.306364
494	O	0.583577	0.335947	0.306313
495	O	0.748951	0.41212	0.306264
496	C	0.866718	0.176414	0.715405
497	N	0.841986	0.141002	0.381732
498	C	0.806268	0.128997	0.382011
499	N	0.795588	0.153727	0.381735
500	C	0.819301	0.189442	0.382067
501	N	0.854713	0.200126	0.381788
502	C	0.780945	0.092416	0.37728
503	C	0.808057	0.214778	0.377387
504	C	0.903298	0.187656	0.377383
505	O	0.834176	0.24952	0.373759
506	O	0.911904	0.161528	0.373669
507	O	0.746204	0.083796	0.37363
508	C	0.759294	0.226055	0.359249
509	N	0.78153	0.259733	0.677056
510	C	0.770603	0.281639	0.659772
511	C	0.73364	0.269298	0.65643
512	N	0.711415	0.235855	0.339008
513	C	0.721968	0.213622	0.356628
514	H	0.789285	0.306578	0.649129
515	C	0.695668	0.180832	0.372998
516	O	0.668735	0.163695	0.350579
517	O	0.691271	0.175605	0.413496
518	H	0.707492	0.188022	0.434079
519	N	0.721203	0.290667	0.640728
520	H	0.73919	0.31537	0.63409
521	N	0.772822	0.205157	0.373626
522	H	0.755491	0.180245	0.379872
523	C	0.769685	0.032388	0.359116
524	N	0.735998	0.020941	0.676953
525	C	0.714087	0.488104	0.659679
526	C	0.726431	0.463484	0.656324
527	N	0.75988	0.474707	0.338882
528	C	0.782114	0.007493	0.356502
529	H	0.689143	0.481843	0.649056
530	C	0.814921	0.013998	0.372829
531	O	0.832049	0.504207	0.350379
532	O	0.820174	0.01483	0.41332
533	H	0.807769	0.01863	0.43392
534	N	0.705052	0.429676	0.640631
535	H	0.680347	0.422957	0.634014
536	N	0.790577	0.066811	0.373513
537	H	0.815488	0.074394	0.379765
538	C	0.963335	0.236426	0.359242
539	N	0.974772	0.214186	0.677046
540	C	0.507604	0.225105	0.659759
541	C	0.532235	0.262068	0.656424
542	N	0.521022	0.284296	0.339012
543	C	0.988234	0.273751	0.356631
544	H	0.513856	0.206422	0.649112
545	C	0.981706	0.300006	0.373032
546	O	0.491784	0.327008	0.350618
547	O	0.980933	0.304662	0.41344
548	H	0.977106	0.288513	0.434126
549	N	0.566043	0.274503	0.640724
550	H	0.572758	0.256515	0.634097
551	N	0.92891	0.222891	0.373636
552	H	0.921334	0.240221	0.379908
553	C	0.628221	0.320446	0.963698
554	N	0.653158	0.355799	0.630669
555	C	0.688795	0.367487	0.63033
556	N	0.699218	0.342557	0.630679
557	C	0.675275	0.306915	0.630366
558	N	0.639921	0.296503	0.630719
559	C	0.714334	0.403905	0.635738
560	C	0.686146	0.28138	0.635851
561	C	0.59181	0.309556	0.635831
562	O	0.659747	0.246763	0.639698
563	O	0.583577	0.335947	0.639648
564	O	0.748951	0.41212	0.639598
565	C	0.866718	0.176414	0.04874
566	N	0.841986	0.141002	0.715066
567	C	0.806268	0.128997	0.715345
568	N	0.795588	0.153727	0.71507
569	C	0.819301	0.189442	0.715402
570	N	0.854713	0.200126	0.715119
571	C	0.780945	0.092416	0.710615
572	C	0.808057	0.214778	0.710718
573	C	0.903298	0.187656	0.710714
574	O	0.834176	0.24952	0.70709
575	O	0.911904	0.161528	0.707004
576	O	0.746204	0.083796	0.706964
577	C	0.759294	0.226055	0.69258
578	N	0.78153	0.259733	0.010391
579	C	0.770603	0.281639	0.993107
580	C	0.73364	0.269298	0.989765
581	N	0.711415	0.235855	0.672343
582	C	0.721968	0.213622	0.689962
583	H	0.789285	0.306578	0.982463
584	C	0.695668	0.180832	0.706333
585	O	0.668735	0.163695	0.68391
586	O	0.691271	0.175605	0.746831
587	H	0.707492	0.188022	0.767413
588	N	0.721203	0.290667	0.974062
589	H	0.73919	0.31537	0.967425
590	N	0.772822	0.205157	0.706961
591	H	0.755491	0.180245	0.713206
592	C	0.769685	0.032388	0.69245
593	N	0.735998	0.020941	0.010288
594	C	0.714087	0.488104	0.993014
595	C	0.726431	0.463484	0.989659
596	N	0.75988	0.474707	0.672213
597	C	0.782114	0.007493	0.689833
598	H	0.689143	0.481843	0.98239
599	C	0.814921	0.013998	0.70616
600	O	0.832049	0.504207	0.683714
601	O	0.820174	0.01483	0.746655
602	H	0.807769	0.01863	0.767254
603	N	0.705052	0.429676	0.973962
604	H	0.680347	0.422957	0.967345
605	N	0.790577	0.066811	0.706844
606	H	0.815488	0.074394	0.7131
607	C	0.963335	0.236426	0.692573
608	N	0.974772	0.214186	0.010378
609	C	0.507604	0.225105	0.993093
610	C	0.532235	0.262068	0.989758
611	N	0.521022	0.284296	0.672346
612	C	0.988234	0.273751	0.689966
613	H	0.513856	0.206422	0.982443
614	C	0.981706	0.300006	0.706366
615	O	0.491784	0.327008	0.683953
616	O	0.980933	0.304662	0.746771
617	H	0.977106	0.288513	0.76746
618	N	0.566043	0.274503	0.974055
619	H	0.572758	0.256515	0.967431
620	N	0.92891	0.222891	0.706971
621	H	0.921334	0.240221	0.713242
622	C	0.62822	0.820445	0.297029
623	N	0.653157	0.855798	0.964003
624	C	0.688797	0.867488	0.963661
625	N	0.69922	0.842558	0.96401
626	C	0.675274	0.806916	0.963698
627	N	0.639921	0.796502	0.96405
628	C	0.714333	0.903906	0.969072
629	C	0.686148	0.781381	0.969185
630	C	0.591808	0.809554	0.969165
631	O	0.659749	0.746764	0.973032
632	O	0.583577	0.835948	0.972979
633	O	0.74895	0.912121	0.972929
634	C	0.866717	0.676414	0.382074
635	N	0.841987	0.641003	0.048398
636	C	0.806267	0.628996	0.048678
637	N	0.79559	0.653729	0.048403
638	C	0.819303	0.689443	0.048735
639	N	0.854714	0.700127	0.048454
640	C	0.780944	0.592415	0.043948
641	C	0.808055	0.714777	0.044052
642	C	0.903299	0.687655	0.044048
643	O	0.834177	0.74952	0.040425
644	O	0.911905	0.661529	0.040336
645	O	0.746205	0.583797	0.040296
646	C	0.759293	0.726056	0.025914
647	N	0.781532	0.759733	0.343725
648	C	0.770605	0.78164	0.32644
649	C	0.73364	0.769299	0.323098
650	N	0.711414	0.735855	0.005675
651	C	0.721968	0.713621	0.023295
652	H	0.789283	0.806576	0.315797
653	C	0.69567	0.680832	0.039664
654	O	0.668736	0.663693	0.017244
655	O	0.691272	0.675606	0.080163
656	H	0.707491	0.688022	0.100745
657	N	0.721202	0.790668	0.307395
658	H	0.739189	0.815372	0.300758
659	N	0.772822	0.705158	0.040294
660	H	0.75549	0.680246	0.04654
661	C	0.769687	0.532389	0.025783
662	N	0.736	0.520942	0.343622
663	C	0.714087	0.988105	0.326348
664	C	0.726429	0.963483	0.322991
665	N	0.75988	0.974705	0.005548
666	C	0.782113	0.507493	0.023168
667	H	0.689144	0.981844	0.315724
668	C	0.81492	0.513998	0.039495
669	O	0.832047	0.004207	0.017046
670	O	0.820175	0.51483	0.079987
671	H	0.807768	0.51863	0.100588
672	N	0.705053	0.929677	0.307297
673	H	0.680346	0.922955	0.300679
674	N	0.790575	0.566811	0.040179
675	H	0.815487	0.574394	0.046432
676	C	0.963336	0.736425	0.025908
677	N	0.974771	0.714186	0.343712
678	C	0.507605	0.725106	0.326426
679	C	0.532235	0.762069	0.323092
680	N	0.521022	0.784295	0.005678
681	C	0.988234	0.773749	0.023297
682	H	0.513855	0.706423	0.315778
683	C	0.981706	0.800004	0.039698
684	O	0.491784	0.827009	0.017286
685	O	0.980935	0.804663	0.080105
686	H	0.977105	0.788512	0.100792
687	N	0.566041	0.774501	0.30739
688	H	0.572758	0.756514	0.300764
689	N	0.928911	0.72289	0.040305
690	H	0.921335	0.740222	0.046575
691	C	0.62822	0.820445	0.630363
692	N	0.653157	0.855798	0.297336
693	C	0.688797	0.867488	0.296995
694	N	0.69922	0.842558	0.297344
695	C	0.675274	0.806916	0.297032
696	N	0.639921	0.796502	0.297384
697	C	0.714333	0.903906	0.302405
698	C	0.686148	0.781381	0.302519
699	C	0.591808	0.809554	0.302497
700	O	0.659749	0.746764	0.306364
701	O	0.583577	0.835948	0.306313
702	O	0.74895	0.912121	0.306264
703	C	0.866717	0.676414	0.715405
704	N	0.841987	0.641003	0.381732
705	C	0.806267	0.628996	0.382011
706	N	0.79559	0.653729	0.381735
707	C	0.819303	0.689443	0.382067
708	N	0.854714	0.700127	0.381788
709	C	0.780944	0.592415	0.37728
710	C	0.808055	0.714777	0.377387
711	C	0.903299	0.687655	0.377383
712	O	0.834177	0.74952	0.373759
713	O	0.911905	0.661529	0.373669
714	O	0.746205	0.583797	0.37363
715	C	0.759293	0.726056	0.359249
716	N	0.781532	0.759733	0.677056
717	C	0.770605	0.78164	0.659772
718	C	0.73364	0.769299	0.65643
719	N	0.711414	0.735855	0.339008
720	C	0.721968	0.713621	0.356628
721	H	0.789283	0.806576	0.649129
722	C	0.69567	0.680832	0.372998
723	O	0.668736	0.663693	0.350579
724	O	0.691272	0.675606	0.413496
725	H	0.707491	0.688022	0.434079
726	N	0.721202	0.790668	0.640728
727	H	0.739189	0.815372	0.63409
728	N	0.772822	0.705158	0.373626
729	H	0.75549	0.680246	0.379872
730	C	0.769687	0.532389	0.359116
731	N	0.736	0.520942	0.676953
732	C	0.714087	0.988105	0.659679
733	C	0.726429	0.963483	0.656324
734	N	0.75988	0.974705	0.338882
735	C	0.782113	0.507493	0.356502
736	H	0.689144	0.981844	0.649056
737	C	0.81492	0.513998	0.372829
738	O	0.832047	0.004207	0.350379
739	O	0.820175	0.51483	0.41332
740	H	0.807768	0.51863	0.43392
741	N	0.705053	0.929677	0.640631
742	H	0.680346	0.922955	0.634014
743	N	0.790575	0.566811	0.373513
744	H	0.815487	0.574394	0.379765
745	C	0.963336	0.736425	0.359242
746	N	0.974771	0.714186	0.677046
747	C	0.507605	0.725106	0.659759
748	C	0.532235	0.762069	0.656424
749	N	0.521022	0.784295	0.339012
750	C	0.988234	0.773749	0.356631
751	H	0.513855	0.706423	0.649112
752	C	0.981706	0.800004	0.373032
753	O	0.491784	0.827009	0.350618
754	O	0.980935	0.804663	0.41344
755	H	0.977105	0.788512	0.434126
756	N	0.566041	0.774501	0.640724
757	H	0.572758	0.756514	0.634097
758	N	0.928911	0.72289	0.373636
759	H	0.921335	0.740222	0.379908
760	C	0.62822	0.820445	0.963698
761	N	0.653157	0.855798	0.630669
762	C	0.688797	0.867488	0.63033
763	N	0.69922	0.842558	0.630679
764	C	0.675274	0.806916	0.630366
765	N	0.639921	0.796502	0.630719
766	C	0.714333	0.903906	0.635738
767	C	0.686148	0.781381	0.635851
768	C	0.591808	0.809554	0.635831
769	O	0.659749	0.746764	0.639698
770	O	0.583577	0.835948	0.639648
771	O	0.74895	0.912121	0.639598
772	C	0.866717	0.676414	0.04874
773	N	0.841987	0.641003	0.715066
774	C	0.806267	0.628996	0.715345
775	N	0.79559	0.653729	0.71507
776	C	0.819303	0.689443	0.715402
777	N	0.854714	0.700127	0.715119
778	C	0.780944	0.592415	0.710615
779	C	0.808055	0.714777	0.710718
780	C	0.903299	0.687655	0.710714
781	O	0.834177	0.74952	0.70709
782	O	0.911905	0.661529	0.707004
783	O	0.746205	0.583797	0.706964
784	C	0.759293	0.726056	0.69258
785	N	0.781532	0.759733	0.010391
786	C	0.770605	0.78164	0.993107
787	C	0.73364	0.769299	0.989765
788	N	0.711414	0.735855	0.672343
789	C	0.721968	0.713621	0.689962
790	H	0.789283	0.806576	0.982463
791	C	0.69567	0.680832	0.706333
792	O	0.668736	0.663693	0.68391
793	O	0.691272	0.675606	0.746831
794	H	0.707491	0.688022	0.767413
795	N	0.721202	0.790668	0.974062
796	H	0.739189	0.815372	0.967425
797	N	0.772822	0.705158	0.706961
798	H	0.75549	0.680246	0.713206
799	C	0.769687	0.532389	0.69245
800	N	0.736	0.520942	0.010288
801	C	0.714087	0.988105	0.993014
802	C	0.726429	0.963483	0.989659
803	N	0.75988	0.974705	0.672213
804	C	0.782113	0.507493	0.689836
805	H	0.689144	0.981844	0.98239
806	C	0.81492	0.513998	0.70616
807	O	0.832047	0.004207	0.683714
808	O	0.820175	0.51483	0.746655
809	H	0.807768	0.51863	0.767254
810	N	0.705053	0.929677	0.973962
811	H	0.680346	0.922955	0.967345
812	N	0.790575	0.566811	0.706844
813	H	0.815487	0.574394	0.7131
814	C	0.963336	0.736425	0.692573
815	N	0.974771	0.714186	0.010378
816	C	0.507605	0.725106	0.993093
817	C	0.532235	0.762069	0.989758
818	N	0.521022	0.784295	0.672346
819	C	0.988234	0.773749	0.689966
820	H	0.513855	0.706423	0.982443
821	C	0.981706	0.800004	0.706366
822	O	0.491784	0.827009	0.683953
823	O	0.980935	0.804663	0.746771
824	H	0.977105	0.788512	0.76746
825	N	0.566041	0.774501	0.974055
826	H	0.572758	0.756514	0.967431
827	N	0.928911	0.72289	0.706971
828	H	0.921335	0.740222	0.713242
