data_C432H144N288_2018-02-15_10:38:15
#******************************************
#
# CIF file created by Zeo++
# Zeo++ is an open source package to
# analyze microporous materials
#
#*******************************************

_cell_length_a		44.2618   
_cell_length_b		44.2662   
_cell_length_c		29.4174   
_cell_angle_alpha		90   
_cell_angle_beta		90   
_cell_angle_gamma		120.01   

_symmetry_space_group_name_H-M		'P1'
_symmetry_Int_Tables_number		1
_symmetry_cell_setting		Monoclinic

loop_
_symmetry_equiv_pos_as_xyz
'+x,+y,+z'

loop_
_atom_site_label
_atom_site_type_symbol
_atom_site_fract_x
_atom_site_fract_y
_atom_site_fract_z
1	N	0.139339	0.072258	0.049642
2	C	0.103879	0.054503	0.050705
3	H	0.091529	0.048322	0.081517
4	N	0.13934	0.572259	0.049642
5	C	0.103879	0.554504	0.050705
6	H	0.09153	0.548323	0.081517
7	C	0.24723	0.099533	0.009917
8	N	0.264304	0.13484	0.009941
9	C	0.367884	0.099156	0.009922
10	N	0.385684	0.081489	0.009938
11	N	0.386403	0.256582	0.009992
12	C	0.284925	0.083572	0.05084
13	N	0.316165	0.084753	0.049586
14	C	0.331497	0.083829	0.010014
15	H	0.276221	0.087084	0.081513
16	C	0.31456	0.235954	0.050805
17	N	0.284503	0.204707	0.049551
18	C	0.268215	0.18938	0.009984
19	H	0.326803	0.244659	0.081464
20	C	0.268361	0.084076	0.010038
21	C	0.331559	0.252492	0.00996
22	C	0.24723	0.599534	0.009917
23	N	0.264304	0.634839	0.009941
24	C	0.367884	0.599156	0.009922
25	N	0.385684	0.581489	0.009938
26	N	0.386403	0.756581	0.009992
27	C	0.284925	0.583573	0.05084
28	N	0.316164	0.584753	0.049586
29	C	0.331498	0.583829	0.010014
30	H	0.276222	0.587085	0.081513
31	C	0.314559	0.735954	0.050805
32	N	0.284503	0.704708	0.049551
33	C	0.268215	0.689381	0.009984
34	H	0.326803	0.744659	0.081464
35	C	0.268361	0.584077	0.010038
36	C	0.33156	0.752493	0.00996
37	N	0.029888	0.043955	0.009826
38	C	0.047855	0.02645	0.009823
39	N	0.029936	0.490974	0.00982
40	N	0.211696	0.135175	0.009864
41	C	0.193896	0.099578	0.00985
42	N	0.211749	0.081837	0.009894
43	C	0.103888	0.054503	0.30229
44	N	0.139349	0.072258	0.303368
45	C	0.157338	0.081267	0.343174
46	C	0.084602	0.044851	0.009826
47	H	0.091546	0.048322	0.271473
48	N	0.029888	0.043955	0.343157
49	C	0.047855	0.02645	0.343154
50	N	0.029936	0.490974	0.343154
51	N	0.211696	0.135175	0.343198
52	C	0.193896	0.099578	0.343184
53	N	0.211749	0.081837	0.343225
54	C	0.103888	0.054503	0.635623
55	N	0.139349	0.072258	0.636701
56	C	0.157338	0.081267	0.67651
57	N	0.139339	0.072258	0.382977
58	C	0.103879	0.054503	0.384038
59	C	0.084602	0.044851	0.343161
60	H	0.091546	0.048322	0.604808
61	H	0.091529	0.048322	0.414853
62	N	0.029888	0.043955	0.676493
63	C	0.047855	0.02645	0.676487
64	N	0.029936	0.490974	0.676487
65	N	0.211696	0.135175	0.676531
66	C	0.193896	0.099578	0.676517
67	N	0.211749	0.081837	0.676561
68	C	0.103888	0.054503	0.968956
69	N	0.139349	0.072258	0.970034
70	C	0.157338	0.081267	0.009843
71	N	0.139339	0.072258	0.71631
72	C	0.103879	0.054503	0.717374
73	C	0.084602	0.044851	0.676493
74	H	0.091546	0.048322	0.938141
75	H	0.091529	0.048322	0.748186
76	N	0.029888	0.543956	0.009826
77	C	0.047856	0.526451	0.009823
78	N	0.029935	0.990974	0.00982
79	N	0.211696	0.635176	0.009864
80	C	0.193896	0.599578	0.00985
81	N	0.211749	0.581839	0.009894
82	C	0.103888	0.554504	0.30229
83	N	0.139349	0.572259	0.303368
84	C	0.157338	0.581267	0.343174
85	C	0.084603	0.544851	0.009826
86	H	0.091546	0.548323	0.271473
87	N	0.029888	0.543956	0.343157
88	C	0.047856	0.526451	0.343154
89	N	0.029935	0.990974	0.343154
90	N	0.211696	0.635176	0.343198
91	C	0.193896	0.599578	0.343184
92	N	0.211749	0.581839	0.343225
93	C	0.103888	0.554504	0.635623
94	N	0.139349	0.572259	0.636701
95	C	0.157338	0.581267	0.67651
96	N	0.13934	0.572259	0.382977
97	C	0.103879	0.554504	0.384038
98	C	0.084603	0.544851	0.343161
99	H	0.091546	0.548323	0.604808
100	H	0.09153	0.548323	0.414849
101	N	0.029888	0.543956	0.676493
102	C	0.047856	0.526451	0.676487
103	N	0.029935	0.990974	0.676487
104	N	0.211696	0.635176	0.676531
105	C	0.193896	0.599578	0.676517
106	N	0.211749	0.581839	0.676558
107	C	0.103888	0.554504	0.968956
108	N	0.139349	0.572259	0.970034
109	C	0.157338	0.581267	0.009843
110	N	0.13934	0.572259	0.71631
111	C	0.103879	0.554504	0.717374
112	C	0.084603	0.544851	0.676493
113	H	0.091546	0.548323	0.938141
114	H	0.09153	0.548323	0.748186
115	C	0.247169	0.152995	0.009891
116	N	0.386067	0.13445	0.009894
117	N	0.385949	0.309122	0.009843
118	C	0.368161	0.273642	0.009905
119	N	0.316284	0.085047	0.303797
120	C	0.284997	0.083772	0.302503
121	C	0.268361	0.084076	0.343371
122	H	0.276505	0.087661	0.271893
123	N	0.28461	0.204611	0.303747
124	C	0.314613	0.23591	0.30242
125	C	0.331559	0.252492	0.343293
126	H	0.326991	0.244417	0.271809
127	C	0.247169	0.152995	0.343222
128	C	0.24723	0.099533	0.343252
129	N	0.264304	0.13484	0.343276
130	C	0.367884	0.099156	0.343256
131	N	0.385684	0.081489	0.343273
132	N	0.386067	0.13445	0.343225
133	N	0.385949	0.309122	0.343174
134	C	0.368161	0.273642	0.343239
135	N	0.386403	0.256582	0.343327
136	C	0.284925	0.083572	0.384174
137	N	0.316165	0.084753	0.382919
138	C	0.331497	0.083829	0.343347
139	N	0.316284	0.085047	0.637129
140	C	0.284997	0.083772	0.635837
141	C	0.268361	0.084076	0.676704
142	H	0.276221	0.087084	0.414846
143	H	0.276505	0.087661	0.605226
144	C	0.31456	0.235954	0.38414
145	N	0.284503	0.204707	0.382885
146	C	0.268215	0.18938	0.343317
147	N	0.28461	0.204611	0.637081
148	C	0.314613	0.23591	0.635752
149	C	0.331559	0.252492	0.676626
150	H	0.326803	0.244659	0.414798
151	H	0.326991	0.244417	0.605141
152	C	0.247169	0.152995	0.676558
153	C	0.24723	0.099533	0.676585
154	N	0.264304	0.13484	0.676609
155	C	0.367884	0.099156	0.676589
156	N	0.385684	0.081489	0.676606
157	N	0.386067	0.13445	0.676558
158	N	0.385949	0.309122	0.67651
159	C	0.368161	0.273642	0.676572
160	N	0.386403	0.256582	0.67666
161	C	0.284925	0.083572	0.717507
162	N	0.316165	0.084753	0.716252
163	C	0.331497	0.083829	0.67668
164	N	0.316284	0.085047	0.970465
165	C	0.284997	0.083772	0.96917
166	H	0.276221	0.087084	0.748179
167	H	0.276505	0.087661	0.938559
168	C	0.31456	0.235954	0.717473
169	N	0.284503	0.204707	0.716218
170	C	0.268215	0.18938	0.67665
171	N	0.28461	0.204611	0.970414
172	C	0.314613	0.23591	0.969089
173	H	0.326803	0.244659	0.748131
174	H	0.326991	0.244417	0.938478
175	C	0.24717	0.652996	0.009891
176	N	0.386066	0.63445	0.009894
177	N	0.385949	0.809123	0.009843
178	C	0.368162	0.773643	0.009905
179	N	0.316284	0.585047	0.303797
180	C	0.284998	0.583772	0.302503
181	C	0.268361	0.584077	0.343371
182	H	0.276505	0.587661	0.271893
183	N	0.28461	0.704611	0.303747
184	C	0.314614	0.735912	0.30242
185	C	0.33156	0.752493	0.343293
186	H	0.326992	0.744419	0.271809
187	C	0.24717	0.652996	0.343222
188	C	0.24723	0.599534	0.343252
189	N	0.264304	0.634839	0.343276
190	C	0.367884	0.599156	0.343256
191	N	0.385684	0.581489	0.343273
192	N	0.386066	0.63445	0.343225
193	N	0.385949	0.809123	0.343174
194	C	0.368162	0.773643	0.343239
195	N	0.386403	0.756581	0.343327
196	C	0.284925	0.583573	0.384174
197	N	0.316164	0.584753	0.382919
198	C	0.331498	0.583829	0.343347
199	N	0.316284	0.585047	0.637129
200	C	0.284998	0.583772	0.635837
201	C	0.268361	0.584077	0.676704
202	H	0.276222	0.587085	0.414846
203	H	0.276505	0.587661	0.605226
204	C	0.314559	0.735954	0.38414
205	N	0.284503	0.704708	0.382885
206	C	0.268215	0.689381	0.343317
207	N	0.28461	0.704611	0.637081
208	C	0.314614	0.735912	0.635752
209	C	0.33156	0.752493	0.676626
210	H	0.326803	0.744659	0.414798
211	H	0.326992	0.744419	0.605141
212	C	0.24717	0.652996	0.676558
213	C	0.24723	0.599534	0.676585
214	N	0.264304	0.634839	0.676609
215	C	0.367884	0.599156	0.676589
216	N	0.385684	0.581489	0.676606
217	N	0.386066	0.63445	0.676558
218	N	0.385949	0.809123	0.67651
219	C	0.368162	0.773643	0.676572
220	N	0.386403	0.756581	0.67666
221	C	0.284925	0.583573	0.717507
222	N	0.316164	0.584753	0.716252
223	C	0.331498	0.583829	0.67668
224	N	0.316284	0.585047	0.970465
225	C	0.284998	0.583772	0.96917
226	H	0.276222	0.587085	0.748179
227	H	0.276505	0.587661	0.938559
228	C	0.314559	0.735954	0.717473
229	N	0.284503	0.704708	0.716218
230	C	0.268215	0.689381	0.67665
231	N	0.28461	0.704611	0.970414
232	C	0.314614	0.735912	0.969089
233	H	0.326803	0.744659	0.748131
234	H	0.326992	0.744419	0.938478
235	C	0.4217	0.273723	0.009978
236	N	0.439355	0.309193	0.009932
237	C	0.437274	0.206228	0.050707
238	N	0.436058	0.236264	0.049586
239	C	0.437012	0.252673	0.010141
240	H	0.433749	0.193963	0.081347
241	C	0.4217	0.773724	0.009978
242	N	0.439355	0.809193	0.009932
243	C	0.437275	0.706229	0.050707
244	N	0.436059	0.736264	0.049586
245	C	0.437011	0.752673	0.010141
246	H	0.433749	0.693962	0.081347
247	C	0.421283	0.099276	0.009891
248	N	0.43905	0.134872	0.00985
249	C	0.421377	0.152671	0.009857
250	C	0.421548	0.326979	0.009847
251	C	0.43958	0.081022	0.343208
252	C	0.439794	0.363534	0.343167
253	N	0.435899	0.236324	0.303877
254	C	0.437223	0.206347	0.302433
255	C	0.436858	0.189253	0.343164
256	H	0.433366	0.194047	0.271769
257	C	0.421283	0.099276	0.343222
258	N	0.43905	0.134872	0.343181
259	C	0.421377	0.152671	0.343191
260	C	0.4217	0.273723	0.34331
261	N	0.439355	0.309193	0.343266
262	C	0.421548	0.326979	0.343181
263	C	0.43958	0.081022	0.676541
264	C	0.439794	0.363534	0.6765
265	C	0.437274	0.206228	0.384041
266	N	0.436058	0.236264	0.382919
267	C	0.437012	0.252673	0.343473
268	N	0.435899	0.236324	0.637211
269	C	0.437223	0.206347	0.635766
270	C	0.436858	0.189253	0.676497
271	H	0.433749	0.193963	0.414679
272	H	0.433366	0.194047	0.605104
273	C	0.421283	0.099276	0.676555
274	N	0.43905	0.134872	0.676517
275	C	0.421377	0.152671	0.676524
276	C	0.4217	0.273723	0.676646
277	N	0.439355	0.309193	0.676599
278	C	0.421548	0.326979	0.676514
279	C	0.43958	0.081022	0.009874
280	C	0.439794	0.363534	0.009837
281	C	0.437274	0.206228	0.717374
282	N	0.436058	0.236264	0.716252
283	C	0.437012	0.252673	0.67681
284	N	0.435899	0.236324	0.970544
285	C	0.437223	0.206347	0.969099
286	C	0.436858	0.189253	0.009833
287	H	0.433749	0.193963	0.748016
288	H	0.433366	0.194047	0.938437
289	C	0.421284	0.599276	0.009891
290	N	0.439051	0.634873	0.00985
291	C	0.421377	0.652673	0.009857
292	C	0.421549	0.82698	0.009847
293	C	0.439579	0.581022	0.343208
294	C	0.439794	0.863534	0.343167
295	N	0.435899	0.736324	0.303877
296	C	0.437224	0.706349	0.302433
297	C	0.436859	0.689253	0.343164
298	H	0.433366	0.694048	0.271769
299	C	0.421284	0.599276	0.343222
300	N	0.439051	0.634873	0.343181
301	C	0.421377	0.652673	0.343191
302	C	0.4217	0.773724	0.34331
303	N	0.439355	0.809193	0.343266
304	C	0.421549	0.82698	0.343181
305	C	0.439579	0.581022	0.676541
306	C	0.439794	0.863534	0.6765
307	C	0.437275	0.706229	0.384041
308	N	0.436059	0.736264	0.382919
309	C	0.437011	0.752673	0.343473
310	N	0.435899	0.736324	0.637211
311	C	0.437224	0.706349	0.635766
312	C	0.436859	0.689253	0.676497
313	H	0.433749	0.693962	0.414679
314	H	0.433366	0.694048	0.605104
315	C	0.421284	0.599276	0.676555
316	N	0.439051	0.634873	0.676517
317	C	0.421377	0.652673	0.676524
318	C	0.4217	0.773724	0.676646
319	N	0.439355	0.809193	0.676599
320	C	0.421549	0.82698	0.676514
321	C	0.439579	0.581022	0.009874
322	C	0.439794	0.863534	0.009837
323	C	0.437275	0.706229	0.717374
324	N	0.436059	0.736264	0.716252
325	C	0.437011	0.752673	0.67681
326	N	0.435899	0.736324	0.970544
327	C	0.437224	0.706349	0.969099
328	C	0.436859	0.689253	0.009833
329	H	0.433749	0.693962	0.748016
330	H	0.433366	0.694048	0.938437
331	N	0.448566	0.072007	0.04967
332	C	0.466322	0.054312	0.050724
333	H	0.472485	0.048124	0.081533
334	N	0.448816	0.38153	0.049636
335	C	0.466517	0.416986	0.050701
336	H	0.472711	0.429333	0.081513
337	N	0.448565	0.572009	0.04967
338	C	0.466323	0.554313	0.050724
339	H	0.472487	0.548125	0.081533
340	N	0.448816	0.88153	0.049636
341	C	0.466518	0.916986	0.050701
342	H	0.472711	0.929334	0.081513
343	C	0.747228	0.099533	0.009917
344	N	0.764303	0.13484	0.009941
345	C	0.867884	0.099156	0.009922
346	N	0.885684	0.081489	0.009938
347	C	0.921697	0.273723	0.009978
348	N	0.939353	0.309193	0.009932
349	N	0.886403	0.256582	0.009992
350	N	0.639339	0.072258	0.049642
351	C	0.603877	0.054503	0.050705
352	H	0.591529	0.048322	0.081517
353	N	0.948563	0.072007	0.04967
354	C	0.966322	0.054312	0.050724
355	H	0.972485	0.048124	0.081533
356	N	0.948813	0.38153	0.049636
357	C	0.966517	0.416986	0.050701
358	H	0.972709	0.429333	0.081513
359	C	0.784925	0.083572	0.05084
360	N	0.816162	0.084753	0.049586
361	C	0.831497	0.083829	0.010014
362	H	0.776221	0.087084	0.081513
363	C	0.937272	0.206228	0.050707
364	N	0.936058	0.236264	0.049586
365	C	0.93701	0.252673	0.010141
366	H	0.933749	0.193963	0.081347
367	C	0.81456	0.235954	0.050805
368	N	0.784502	0.204707	0.049551
369	C	0.768214	0.18938	0.009984
370	H	0.826803	0.244659	0.081464
371	C	0.768358	0.084076	0.010038
372	C	0.831557	0.252492	0.00996
373	C	0.747228	0.599534	0.009917
374	N	0.764303	0.634839	0.009941
375	C	0.867884	0.599156	0.009922
376	N	0.885684	0.581489	0.009938
377	C	0.921697	0.773724	0.009978
378	N	0.939353	0.809193	0.009932
379	N	0.886402	0.756581	0.009992
380	N	0.639339	0.572259	0.049642
381	C	0.603877	0.554504	0.050705
382	H	0.59153	0.548323	0.081517
383	N	0.948564	0.572009	0.04967
384	C	0.966323	0.554313	0.050724
385	H	0.972486	0.548125	0.081533
386	N	0.948814	0.88153	0.049636
387	C	0.966517	0.916986	0.050701
388	H	0.972709	0.929334	0.081513
389	C	0.784925	0.583573	0.05084
390	N	0.816162	0.584753	0.049586
391	C	0.831497	0.583829	0.010014
392	H	0.776221	0.587085	0.081513
393	C	0.937275	0.706229	0.050707
394	N	0.936059	0.736264	0.049586
395	C	0.93701	0.752673	0.010141
396	H	0.933748	0.693962	0.081347
397	C	0.814559	0.735954	0.050805
398	N	0.784503	0.704708	0.049551
399	C	0.768215	0.689381	0.009984
400	H	0.826803	0.744659	0.081464
401	C	0.768359	0.584077	0.010038
402	C	0.831558	0.752493	0.00996
403	C	0.494456	0.473005	0.00982
404	N	0.476894	0.490917	0.009826
405	C	0.494408	0.026391	0.009826
406	C	0.466379	0.05439	0.302309
407	N	0.448623	0.072085	0.303395
408	C	0.476007	0.04473	0.009843
409	H	0.472584	0.048259	0.271489
410	C	0.466441	0.416978	0.302285
411	N	0.448737	0.381522	0.303361
412	C	0.476106	0.43626	0.009823
413	H	0.472576	0.42932	0.271469
414	C	0.494456	0.473005	0.343154
415	N	0.476894	0.490917	0.343157
416	C	0.494408	0.026391	0.343161
417	C	0.466379	0.05439	0.635644
418	N	0.448623	0.072085	0.636728
419	N	0.448566	0.072007	0.383004
420	C	0.466322	0.054312	0.384058
421	C	0.476007	0.04473	0.343174
422	H	0.472584	0.048259	0.604822
423	H	0.472485	0.048124	0.414866
424	C	0.466441	0.416978	0.63562
425	N	0.448737	0.381522	0.636694
426	N	0.448816	0.38153	0.38297
427	C	0.466517	0.416986	0.384034
428	C	0.476106	0.43626	0.343157
429	H	0.472576	0.42932	0.604801
430	H	0.472711	0.429333	0.414846
431	C	0.494456	0.473005	0.676487
432	N	0.476894	0.490917	0.67649
433	C	0.494408	0.026391	0.676493
434	C	0.466379	0.05439	0.968977
435	N	0.448623	0.072085	0.970064
436	N	0.448566	0.072007	0.716337
437	C	0.466322	0.054312	0.717391
438	C	0.476007	0.04473	0.676507
439	H	0.472584	0.048259	0.938158
440	H	0.472485	0.048124	0.748199
441	C	0.466441	0.416978	0.968953
442	N	0.448737	0.381522	0.970027
443	N	0.448816	0.38153	0.716303
444	C	0.466517	0.416986	0.717367
445	C	0.476106	0.43626	0.67649
446	H	0.472576	0.42932	0.938138
447	H	0.472711	0.429333	0.748179
448	C	0.494456	0.973005	0.00982
449	N	0.476895	0.990917	0.009826
450	C	0.494408	0.526391	0.009826
451	C	0.466381	0.554391	0.302309
452	N	0.448623	0.572087	0.303395
453	C	0.476008	0.544731	0.009843
454	H	0.472585	0.548261	0.271489
455	C	0.46644	0.916978	0.302285
456	N	0.448738	0.881522	0.303361
457	C	0.476106	0.93626	0.009823
458	H	0.472576	0.929321	0.271469
459	C	0.494456	0.973005	0.343154
460	N	0.476895	0.990917	0.343157
461	C	0.494408	0.526391	0.343161
462	C	0.466381	0.554391	0.635644
463	N	0.448623	0.572087	0.636728
464	N	0.448565	0.572009	0.383004
465	C	0.466323	0.554313	0.384058
466	C	0.476008	0.544731	0.343174
467	H	0.472585	0.548261	0.604822
468	H	0.472487	0.548125	0.414866
469	C	0.46644	0.916978	0.63562
470	N	0.448738	0.881522	0.636694
471	N	0.448816	0.88153	0.38297
472	C	0.466518	0.916986	0.384034
473	C	0.476106	0.93626	0.343157
474	H	0.472576	0.929321	0.604801
475	H	0.472711	0.929334	0.414846
476	C	0.494456	0.973005	0.676487
477	N	0.476895	0.990917	0.67649
478	C	0.494408	0.526391	0.676493
479	C	0.466381	0.554391	0.968977
480	N	0.448623	0.572087	0.970064
481	N	0.448565	0.572009	0.716337
482	C	0.466323	0.554313	0.717391
483	C	0.476008	0.544731	0.676507
484	H	0.472585	0.548261	0.938158
485	H	0.472487	0.548125	0.748199
486	C	0.46644	0.916978	0.968953
487	N	0.448738	0.881522	0.970027
488	N	0.448816	0.88153	0.716303
489	C	0.466518	0.916986	0.717367
490	C	0.476106	0.93626	0.67649
491	H	0.472576	0.929321	0.938138
492	H	0.472711	0.929334	0.748179
493	C	0.994454	0.473005	0.00982
494	N	0.976894	0.490917	0.009826
495	C	0.994406	0.026391	0.009826
496	N	0.529887	0.043955	0.009826
497	C	0.547854	0.02645	0.009823
498	N	0.529935	0.490974	0.00982
499	C	0.747167	0.152995	0.009891
500	N	0.711696	0.135175	0.009864
501	C	0.693895	0.099578	0.00985
502	N	0.711748	0.081837	0.009894
503	C	0.921283	0.099276	0.009891
504	N	0.93905	0.134872	0.00985
505	C	0.921375	0.152671	0.009857
506	N	0.886064	0.13445	0.009894
507	C	0.921548	0.326979	0.009847
508	N	0.885949	0.309122	0.009843
509	C	0.868161	0.273642	0.009905
510	C	0.603886	0.054503	0.30229
511	N	0.639348	0.072258	0.303368
512	C	0.657338	0.081267	0.343174
513	C	0.584601	0.044851	0.009826
514	H	0.591545	0.048322	0.271473
515	C	0.966379	0.05439	0.302309
516	N	0.94862	0.072085	0.303395
517	C	0.939578	0.081022	0.343208
518	C	0.976007	0.04473	0.009843
519	H	0.972582	0.048259	0.271489
520	C	0.966439	0.416978	0.302285
521	N	0.948737	0.381522	0.303361
522	C	0.939794	0.363534	0.343167
523	C	0.976104	0.43626	0.009823
524	H	0.972576	0.42932	0.271469
525	N	0.816282	0.085047	0.303797
526	C	0.784997	0.083772	0.302503
527	C	0.768358	0.084076	0.343371
528	H	0.776505	0.087661	0.271893
529	N	0.935899	0.236324	0.303877
530	C	0.937221	0.206347	0.302433
531	C	0.936858	0.189253	0.343164
532	H	0.933364	0.194047	0.271769
533	N	0.784608	0.204611	0.303747
534	C	0.814612	0.23591	0.30242
535	C	0.831557	0.252492	0.343293
536	H	0.82699	0.244417	0.271809
537	C	0.994454	0.473005	0.343154
538	N	0.976894	0.490917	0.343157
539	C	0.994406	0.026391	0.343161
540	N	0.529887	0.043955	0.343157
541	C	0.547854	0.02645	0.343154
542	N	0.529935	0.490974	0.343154
543	C	0.747167	0.152995	0.343222
544	N	0.711696	0.135175	0.343198
545	C	0.693895	0.099578	0.343184
546	N	0.711748	0.081837	0.343225
547	C	0.747228	0.099533	0.343252
548	N	0.764303	0.13484	0.343276
549	C	0.867884	0.099156	0.343256
550	N	0.885684	0.081489	0.343273
551	C	0.921283	0.099276	0.343222
552	N	0.93905	0.134872	0.343181
553	C	0.921375	0.152671	0.343191
554	N	0.886064	0.13445	0.343225
555	C	0.921697	0.273723	0.34331
556	N	0.939353	0.309193	0.343266
557	C	0.921548	0.326979	0.343181
558	N	0.885949	0.309122	0.343174
559	C	0.868161	0.273642	0.343239
560	N	0.886403	0.256582	0.343327
561	C	0.603886	0.054503	0.635623
562	N	0.639348	0.072258	0.636701
563	C	0.657338	0.081267	0.67651
564	N	0.639339	0.072258	0.382977
565	C	0.603877	0.054503	0.384038
566	C	0.584601	0.044851	0.343161
567	H	0.591545	0.048322	0.604808
568	H	0.591529	0.048322	0.414853
569	C	0.966379	0.05439	0.635644
570	N	0.94862	0.072085	0.636728
571	C	0.939578	0.081022	0.676541
572	N	0.948563	0.072007	0.383004
573	C	0.966322	0.054312	0.384058
574	C	0.976007	0.04473	0.343174
575	H	0.972582	0.048259	0.604822
576	H	0.972485	0.048124	0.414866
577	C	0.966439	0.416978	0.63562
578	N	0.948737	0.381522	0.636694
579	C	0.939794	0.363534	0.6765
580	N	0.948813	0.38153	0.38297
581	C	0.966517	0.416986	0.384034
582	C	0.976104	0.43626	0.343157
583	H	0.972576	0.42932	0.604801
584	H	0.972709	0.429333	0.414846
585	C	0.784925	0.083572	0.384174
586	N	0.816162	0.084753	0.382919
587	C	0.831497	0.083829	0.343347
588	N	0.816282	0.085047	0.637129
589	C	0.784997	0.083772	0.635837
590	C	0.768358	0.084076	0.676704
591	H	0.776221	0.087084	0.414846
592	H	0.776505	0.087661	0.605226
593	C	0.937272	0.206228	0.384041
594	N	0.936058	0.236264	0.382919
595	C	0.93701	0.252673	0.343473
596	N	0.935899	0.236324	0.637211
597	C	0.937221	0.206347	0.635766
598	C	0.936858	0.189253	0.676497
599	H	0.933749	0.193963	0.414679
600	H	0.933364	0.194047	0.605104
601	C	0.81456	0.235954	0.38414
602	N	0.784502	0.204707	0.382885
603	C	0.768214	0.18938	0.343317
604	N	0.784608	0.204611	0.637081
605	C	0.814612	0.23591	0.635752
606	C	0.831557	0.252492	0.676626
607	H	0.826803	0.244659	0.414798
608	H	0.82699	0.244417	0.605141
609	C	0.994454	0.473005	0.676487
610	N	0.976894	0.490917	0.67649
611	C	0.994406	0.026391	0.676493
612	N	0.529887	0.043955	0.676493
613	C	0.547854	0.02645	0.676487
614	N	0.529935	0.490974	0.676487
615	C	0.747167	0.152995	0.676558
616	N	0.711696	0.135175	0.676531
617	C	0.693895	0.099578	0.676517
618	N	0.711748	0.081837	0.676561
619	C	0.747228	0.099533	0.676585
620	N	0.764303	0.13484	0.676609
621	C	0.867884	0.099156	0.676589
622	N	0.885684	0.081489	0.676606
623	C	0.921283	0.099276	0.676555
624	N	0.93905	0.134872	0.676517
625	C	0.921375	0.152671	0.676524
626	N	0.886064	0.13445	0.676558
627	C	0.921697	0.273723	0.676646
628	N	0.939353	0.309193	0.676599
629	C	0.921548	0.326979	0.676514
630	N	0.885949	0.309122	0.67651
631	C	0.868161	0.273642	0.676572
632	N	0.886403	0.256582	0.67666
633	C	0.603886	0.054503	0.968956
634	N	0.639348	0.072258	0.970034
635	C	0.657338	0.081267	0.009843
636	N	0.639339	0.072258	0.71631
637	C	0.603877	0.054503	0.717374
638	C	0.584601	0.044851	0.676493
639	H	0.591545	0.048322	0.938141
640	H	0.591529	0.048322	0.748186
641	C	0.966379	0.05439	0.968977
642	N	0.94862	0.072085	0.970064
643	C	0.939578	0.081022	0.009874
644	N	0.948563	0.072007	0.716337
645	C	0.966322	0.054312	0.717391
646	C	0.976007	0.04473	0.676507
647	H	0.972582	0.048259	0.938158
648	H	0.972485	0.048124	0.748199
649	C	0.966439	0.416978	0.968953
650	N	0.948737	0.381522	0.970027
651	C	0.939794	0.363534	0.009837
652	N	0.948813	0.38153	0.716303
653	C	0.966517	0.416986	0.717367
654	C	0.976104	0.43626	0.67649
655	H	0.972576	0.42932	0.938138
656	H	0.972709	0.429333	0.748179
657	C	0.784925	0.083572	0.717507
658	N	0.816162	0.084753	0.716252
659	C	0.831497	0.083829	0.67668
660	N	0.816282	0.085047	0.970465
661	C	0.784997	0.083772	0.96917
662	H	0.776221	0.087084	0.748179
663	H	0.776505	0.087661	0.938559
664	C	0.937272	0.206228	0.717374
665	N	0.936058	0.236264	0.716252
666	C	0.93701	0.252673	0.67681
667	N	0.935899	0.236324	0.970544
668	C	0.937221	0.206347	0.969099
669	C	0.936858	0.189253	0.009833
670	H	0.933749	0.193963	0.748016
671	H	0.933364	0.194047	0.938437
672	C	0.81456	0.235954	0.717473
673	N	0.784502	0.204707	0.716218
674	C	0.768214	0.18938	0.67665
675	N	0.784608	0.204611	0.970414
676	C	0.814612	0.23591	0.969089
677	H	0.826803	0.244659	0.748131
678	H	0.82699	0.244417	0.938478
679	C	0.994454	0.973005	0.00982
680	N	0.976894	0.990917	0.009826
681	C	0.994406	0.526391	0.009826
682	N	0.529888	0.543956	0.009826
683	C	0.547854	0.526451	0.009823
684	N	0.529935	0.990974	0.00982
685	C	0.747168	0.652996	0.009891
686	N	0.711696	0.635176	0.009864
687	C	0.693895	0.599578	0.00985
688	N	0.711749	0.581839	0.009894
689	C	0.921283	0.599276	0.009891
690	N	0.93905	0.634873	0.00985
691	C	0.921376	0.652673	0.009857
692	N	0.886064	0.63445	0.009894
693	C	0.921548	0.82698	0.009847
694	N	0.885949	0.809123	0.009843
695	C	0.868162	0.773643	0.009905
696	C	0.603886	0.554504	0.30229
697	N	0.639348	0.572259	0.303368
698	C	0.657337	0.581267	0.343174
699	C	0.584601	0.544851	0.009826
700	H	0.591545	0.548323	0.271473
701	C	0.96638	0.554391	0.302309
702	N	0.948621	0.572087	0.303395
703	C	0.939578	0.581022	0.343208
704	C	0.976007	0.544731	0.009843
705	H	0.972583	0.548261	0.271489
706	C	0.966439	0.916978	0.302285
707	N	0.948737	0.881522	0.303361
708	C	0.939794	0.863534	0.343167
709	C	0.976104	0.93626	0.009823
710	H	0.972576	0.929321	0.271469
711	N	0.816282	0.585047	0.303797
712	C	0.784997	0.583772	0.302503
713	C	0.768359	0.584077	0.343371
714	H	0.776505	0.587661	0.271893
715	N	0.935899	0.736324	0.303877
716	C	0.937222	0.706349	0.302433
717	C	0.936858	0.689253	0.343164
718	H	0.933364	0.694048	0.271769
719	N	0.784608	0.704611	0.303747
720	C	0.814613	0.735912	0.30242
721	C	0.831558	0.752493	0.343293
722	H	0.826991	0.744419	0.271809
723	C	0.994454	0.973005	0.343154
724	N	0.976894	0.990917	0.343157
725	C	0.994406	0.526391	0.343161
726	N	0.529888	0.543956	0.343157
727	C	0.547854	0.526451	0.343154
728	N	0.529935	0.990974	0.343154
729	C	0.747168	0.652996	0.343222
730	N	0.711696	0.635176	0.343198
731	C	0.693895	0.599578	0.343184
732	N	0.711749	0.581839	0.343225
733	C	0.747228	0.599534	0.343252
734	N	0.764303	0.634839	0.343276
735	C	0.867884	0.599156	0.343256
736	N	0.885684	0.581489	0.343273
737	C	0.921283	0.599276	0.343222
738	N	0.93905	0.634873	0.343181
739	C	0.921376	0.652673	0.343191
740	N	0.886064	0.63445	0.343225
741	C	0.921697	0.773724	0.34331
742	N	0.939353	0.809193	0.343266
743	C	0.921548	0.82698	0.343181
744	N	0.885949	0.809123	0.343174
745	C	0.868162	0.773643	0.343239
746	N	0.886402	0.756581	0.343327
747	C	0.603886	0.554504	0.635623
748	N	0.639348	0.572259	0.636701
749	C	0.657337	0.581267	0.67651
750	N	0.639339	0.572259	0.382977
751	C	0.603877	0.554504	0.384038
752	C	0.584601	0.544851	0.343161
753	H	0.591545	0.548323	0.604808
754	H	0.59153	0.548323	0.414849
755	C	0.96638	0.554391	0.635644
756	N	0.948621	0.572087	0.636728
757	C	0.939578	0.581022	0.676541
758	N	0.948564	0.572009	0.383004
759	C	0.966323	0.554313	0.384058
760	C	0.976007	0.544731	0.343174
761	H	0.972583	0.548261	0.604822
762	H	0.972486	0.548125	0.414866
763	C	0.966439	0.916978	0.63562
764	N	0.948737	0.881522	0.636694
765	C	0.939794	0.863534	0.6765
766	N	0.948814	0.88153	0.38297
767	C	0.966517	0.916986	0.384034
768	C	0.976104	0.93626	0.343157
769	H	0.972576	0.929321	0.604801
770	H	0.972709	0.929334	0.414846
771	C	0.784925	0.583573	0.384174
772	N	0.816162	0.584753	0.382919
773	C	0.831497	0.583829	0.343347
774	N	0.816282	0.585047	0.637129
775	C	0.784997	0.583772	0.635837
776	C	0.768359	0.584077	0.676704
777	H	0.776221	0.587085	0.414846
778	H	0.776505	0.587661	0.605226
779	C	0.937275	0.706229	0.384041
780	N	0.936059	0.736264	0.382919
781	C	0.93701	0.752673	0.343473
782	N	0.935899	0.736324	0.637211
783	C	0.937222	0.706349	0.635766
784	C	0.936858	0.689253	0.676497
785	H	0.933748	0.693962	0.414679
786	H	0.933364	0.694048	0.605104
787	C	0.814559	0.735954	0.38414
788	N	0.784503	0.704708	0.382885
789	C	0.768215	0.689381	0.343317
790	N	0.784608	0.704611	0.637081
791	C	0.814613	0.735912	0.635752
792	C	0.831558	0.752493	0.676626
793	H	0.826803	0.744659	0.414798
794	H	0.826991	0.744419	0.605141
795	C	0.994454	0.973005	0.676487
796	N	0.976894	0.990917	0.67649
797	C	0.994406	0.526391	0.676493
798	N	0.529888	0.543956	0.676493
799	C	0.547854	0.526451	0.676487
800	N	0.529935	0.990974	0.676487
801	C	0.747168	0.652996	0.676558
802	N	0.711696	0.635176	0.676531
803	C	0.693895	0.599578	0.676517
804	N	0.711749	0.581839	0.676558
805	C	0.747228	0.599534	0.676585
806	N	0.764303	0.634839	0.676609
807	C	0.867884	0.599156	0.676589
808	N	0.885684	0.581489	0.676606
809	C	0.921283	0.599276	0.676555
810	N	0.93905	0.634873	0.676517
811	C	0.921376	0.652673	0.676524
812	N	0.886064	0.63445	0.676558
813	C	0.921697	0.773724	0.676646
814	N	0.939353	0.809193	0.676599
815	C	0.921548	0.82698	0.676514
816	N	0.885949	0.809123	0.67651
817	C	0.868162	0.773643	0.676572
818	N	0.886402	0.756581	0.67666
819	C	0.603886	0.554504	0.968956
820	N	0.639348	0.572259	0.970034
821	C	0.657337	0.581267	0.009843
822	N	0.639339	0.572259	0.71631
823	C	0.603877	0.554504	0.717374
824	C	0.584601	0.544851	0.676493
825	H	0.591545	0.548323	0.938141
826	H	0.59153	0.548323	0.748186
827	C	0.96638	0.554391	0.968977
828	N	0.948621	0.572087	0.970064
829	C	0.939578	0.581022	0.009874
830	N	0.948564	0.572009	0.716337
831	C	0.966323	0.554313	0.717391
832	C	0.976007	0.544731	0.676507
833	H	0.972583	0.548261	0.938158
834	H	0.972486	0.548125	0.748199
835	C	0.966439	0.916978	0.968953
836	N	0.948737	0.881522	0.970027
837	C	0.939794	0.863534	0.009837
838	N	0.948814	0.88153	0.716303
839	C	0.966517	0.916986	0.717367
840	C	0.976104	0.93626	0.67649
841	H	0.972576	0.929321	0.938138
842	H	0.972709	0.929334	0.748179
843	C	0.784925	0.583573	0.717507
844	N	0.816162	0.584753	0.716252
845	C	0.831497	0.583829	0.67668
846	N	0.816282	0.585047	0.970465
847	C	0.784997	0.583772	0.96917
848	H	0.776221	0.587085	0.748179
849	H	0.776505	0.587661	0.938559
850	C	0.937275	0.706229	0.717374
851	N	0.936059	0.736264	0.716252
852	C	0.93701	0.752673	0.67681
853	N	0.935899	0.736324	0.970544
854	C	0.937222	0.706349	0.969099
855	C	0.936858	0.689253	0.009833
856	H	0.933748	0.693962	0.748016
857	H	0.933364	0.694048	0.938437
858	C	0.814559	0.735954	0.717473
859	N	0.784503	0.704708	0.716218
860	C	0.768215	0.689381	0.67665
861	N	0.784608	0.704611	0.970414
862	C	0.814613	0.735912	0.969089
863	H	0.826803	0.744659	0.748131
864	H	0.826991	0.744419	0.938478
