data_C360H144N216O144_2018-02-15_10:45:04
#******************************************
#
# CIF file created by Zeo++
# Zeo++ is an open source package to
# analyze microporous materials
#
#*******************************************

_cell_length_a		45.1174   
_cell_length_b		45.1174   
_cell_length_c		29.5704   
_cell_angle_alpha		90   
_cell_angle_beta		90   
_cell_angle_gamma		120   

_symmetry_space_group_name_H-M		'P1'
_symmetry_Int_Tables_number		1
_symmetry_cell_setting		Monoclinic

loop_
_symmetry_equiv_pos_as_xyz
'+x,+y,+z'

loop_
_atom_site_label
_atom_site_type_symbol
_atom_site_fract_x
_atom_site_fract_y
_atom_site_fract_z
1	C	0.142742	0.319568	0.02364
2	N	0.163939	0.306259	0.023675
3	N	0.156847	0.354221	0.023678
4	N	0.108559	0.297529	0.024102
5	O	0.167248	0.457776	0.002759
6	C	0.04667	0.277029	0.358101
7	C	0.021817	0.287325	0.354709
8	H	0.029123	0.31267	0.351321
9	C	0.034657	0.241304	0.029566
10	N	0.05964	0.231229	0.034376
11	O	0.060383	0.21311	0.002715
12	O	0.059794	0.218784	0.072258
13	C	0.081718	0.30315	0.356755
14	H	0.087494	0.328144	0.354506
15	C	0.142742	0.319568	0.356975
16	N	0.163939	0.306259	0.357009
17	N	0.156847	0.354221	0.357012
18	N	0.108559	0.297529	0.357435
19	O	0.167248	0.457776	0.336093
20	C	0.04667	0.277029	0.691434
21	C	0.021817	0.287325	0.688042
22	H	0.029123	0.31267	0.684654
23	C	0.034657	0.241304	0.3629
24	N	0.05964	0.231229	0.367709
25	O	0.060383	0.21311	0.336047
26	O	0.059794	0.218784	0.405591
27	C	0.081718	0.30315	0.690088
28	H	0.087494	0.328144	0.687843
29	C	0.142742	0.319568	0.690308
30	N	0.163939	0.306259	0.690342
31	N	0.156847	0.354221	0.690345
32	N	0.108559	0.297529	0.690768
33	O	0.167248	0.457776	0.669426
34	C	0.04667	0.277029	0.024766
35	C	0.021817	0.287325	0.021375
36	H	0.029123	0.31267	0.017988
37	C	0.034657	0.241304	0.696233
38	N	0.05964	0.231229	0.701042
39	O	0.060383	0.21311	0.669382
40	O	0.059794	0.218784	0.738924
41	C	0.081718	0.30315	0.023422
42	H	0.087494	0.328144	0.021175
43	C	0.142743	0.819568	0.02364
44	N	0.163938	0.806259	0.023675
45	N	0.156847	0.854221	0.023678
46	N	0.10856	0.797529	0.024102
47	O	0.167248	0.957776	0.002759
48	C	0.046671	0.777029	0.358101
49	C	0.021817	0.787325	0.354709
50	H	0.029124	0.81267	0.351321
51	C	0.034657	0.741304	0.029566
52	N	0.05964	0.73123	0.034376
53	O	0.060383	0.71311	0.002715
54	O	0.059794	0.718784	0.072258
55	C	0.081718	0.80315	0.356755
56	H	0.087493	0.828144	0.354506
57	C	0.142743	0.819568	0.356975
58	N	0.163938	0.806259	0.357009
59	N	0.156847	0.854221	0.357012
60	N	0.10856	0.797529	0.357435
61	O	0.167248	0.957776	0.336093
62	C	0.046671	0.777029	0.691434
63	C	0.021817	0.787325	0.688042
64	H	0.029124	0.81267	0.684654
65	C	0.034657	0.741304	0.3629
66	N	0.05964	0.73123	0.367709
67	O	0.060383	0.71311	0.336047
68	O	0.059794	0.718784	0.405591
69	C	0.081718	0.80315	0.690088
70	H	0.087493	0.828144	0.687843
71	C	0.142743	0.819568	0.690308
72	N	0.163938	0.806259	0.690342
73	N	0.156847	0.854221	0.690345
74	N	0.10856	0.797529	0.690768
75	O	0.167248	0.957776	0.669426
76	C	0.046671	0.777029	0.024766
77	C	0.021817	0.787325	0.021375
78	H	0.029124	0.81267	0.017988
79	C	0.034657	0.741304	0.696233
80	N	0.05964	0.73123	0.701042
81	O	0.060383	0.71311	0.669382
82	O	0.059794	0.718784	0.738924
83	C	0.081718	0.80315	0.023422
84	H	0.087493	0.828144	0.021175
85	C	0.19859	0.326805	0.023631
86	N	0.211901	0.361313	0.023672
87	C	0.191353	0.375417	0.023634
88	N	0.203497	0.4096	0.024101
89	N	0.220629	0.314661	0.024096
90	C	0.241128	0.273272	0.358098
91	C	0.230833	0.238124	0.354713
92	C	0.254557	0.226608	0.355372
93	H	0.245351	0.20086	0.352376
94	H	0.205491	0.220087	0.351304
95	C	0.215009	0.282201	0.356748
96	H	0.190014	0.262981	0.354496
97	C	0.244887	0.471489	0.358101
98	C	0.268514	0.044043	0.026178
99	C	0.232934	0.019531	0.030282
100	C	0.221175	0.483503	0.029586
101	N	0.210313	0.032592	0.035761
102	N	0.186119	0.458519	0.03441
103	O	0.195678	0.026314	0.073492
104	O	0.189458	0.025688	0.003966
105	O	0.173531	0.458365	0.0723
106	C	0.235959	0.436442	0.356752
107	H	0.255178	0.430665	0.3545
108	H	0.263712	0.088301	0.028063
109	C	0.19859	0.326805	0.356965
110	N	0.211901	0.361313	0.357005
111	C	0.191353	0.375417	0.356968
112	N	0.203497	0.4096	0.357435
113	N	0.220629	0.314661	0.357428
114	C	0.241128	0.273272	0.691431
115	C	0.230833	0.238124	0.688046
116	C	0.254557	0.226608	0.688705
117	H	0.245351	0.20086	0.685709
118	H	0.205491	0.220087	0.684637
119	C	0.215009	0.282201	0.690082
120	H	0.190014	0.262981	0.687829
121	C	0.244887	0.471489	0.691434
122	C	0.268514	0.044043	0.359511
123	C	0.232934	0.019531	0.363613
124	C	0.221175	0.483503	0.36292
125	N	0.210313	0.032592	0.369095
126	N	0.186119	0.458519	0.367743
127	O	0.195678	0.026314	0.406826
128	O	0.189458	0.025688	0.337301
129	O	0.173531	0.458365	0.405635
130	C	0.235959	0.436442	0.690085
131	H	0.255178	0.430665	0.687833
132	H	0.263712	0.088301	0.361395
133	C	0.19859	0.326805	0.690298
134	N	0.211901	0.361313	0.690339
135	C	0.191353	0.375417	0.690301
136	N	0.203497	0.4096	0.690768
137	N	0.220629	0.314661	0.690761
138	C	0.241128	0.273272	0.024764
139	C	0.230833	0.238124	0.021378
140	C	0.254557	0.226608	0.022039
141	H	0.245351	0.20086	0.019043
142	H	0.205491	0.220087	0.017971
143	C	0.215009	0.282201	0.023415
144	H	0.190014	0.262981	0.021164
145	C	0.244887	0.471489	0.024768
146	C	0.268514	0.044043	0.692845
147	C	0.232934	0.019531	0.69695
148	C	0.221175	0.483503	0.696253
149	N	0.210313	0.032592	0.702428
150	N	0.186119	0.458519	0.701076
151	O	0.195678	0.026314	0.740159
152	O	0.189458	0.025688	0.670633
153	O	0.173531	0.458365	0.738968
154	C	0.235959	0.436442	0.023418
155	H	0.255178	0.430665	0.021165
156	H	0.263712	0.088301	0.694732
157	C	0.19859	0.826806	0.023631
158	N	0.211901	0.861313	0.023672
159	C	0.191354	0.875417	0.023634
160	N	0.203498	0.9096	0.024101
161	N	0.220629	0.814662	0.024096
162	C	0.241128	0.773272	0.358098
163	C	0.230834	0.738125	0.354713
164	C	0.254557	0.726608	0.355372
165	H	0.245352	0.700861	0.352376
166	H	0.205491	0.720087	0.351304
167	C	0.21501	0.782202	0.356748
168	H	0.190014	0.762981	0.354496
169	C	0.244889	0.971489	0.358101
170	C	0.268513	0.544044	0.026178
171	C	0.232933	0.51953	0.030282
172	C	0.221175	0.983503	0.029586
173	N	0.210312	0.532591	0.035761
174	N	0.18612	0.958519	0.03441
175	O	0.195679	0.526315	0.073492
176	O	0.189458	0.525688	0.003966
177	O	0.173531	0.958365	0.0723
178	C	0.23596	0.936442	0.356752
179	H	0.255178	0.930666	0.3545
180	H	0.263712	0.588302	0.028063
181	C	0.19859	0.826806	0.356965
182	N	0.211901	0.861313	0.357005
183	C	0.191354	0.875417	0.356968
184	N	0.203498	0.9096	0.357435
185	N	0.220629	0.814662	0.357428
186	C	0.241128	0.773272	0.691431
187	C	0.230834	0.738125	0.688046
188	C	0.254557	0.726608	0.688705
189	H	0.245352	0.700861	0.685709
190	H	0.205491	0.720087	0.684637
191	C	0.21501	0.782202	0.690082
192	H	0.190014	0.762981	0.687829
193	C	0.244889	0.971489	0.691434
194	C	0.268513	0.544044	0.359511
195	C	0.232933	0.51953	0.363613
196	C	0.221175	0.983503	0.36292
197	N	0.210312	0.532591	0.369095
198	N	0.18612	0.958519	0.367743
199	O	0.195679	0.526315	0.406826
200	O	0.189458	0.525688	0.337301
201	O	0.173531	0.958365	0.405635
202	C	0.23596	0.936442	0.690085
203	H	0.255178	0.930666	0.687833
204	H	0.263712	0.588302	0.361395
205	C	0.19859	0.826806	0.690298
206	N	0.211901	0.861313	0.690339
207	C	0.191354	0.875417	0.690301
208	N	0.203498	0.9096	0.690768
209	N	0.220629	0.814662	0.690761
210	C	0.241128	0.773272	0.024764
211	C	0.230834	0.738125	0.021378
212	C	0.254557	0.726608	0.022039
213	H	0.245352	0.700861	0.019043
214	H	0.205491	0.720087	0.017971
215	C	0.21501	0.782202	0.023415
216	H	0.190014	0.762981	0.021164
217	C	0.244889	0.971489	0.024768
218	C	0.268513	0.544044	0.692845
219	C	0.232933	0.51953	0.69695
220	C	0.221175	0.983503	0.696253
221	N	0.210312	0.532591	0.702428
222	N	0.18612	0.958519	0.701076
223	O	0.195679	0.526315	0.740159
224	O	0.189458	0.525688	0.670633
225	O	0.173531	0.958365	0.738968
226	C	0.23596	0.936442	0.023418
227	H	0.255178	0.930666	0.021165
228	H	0.263712	0.588302	0.694732
229	C	0.324779	0.189535	0.024187
230	N	0.30975	0.154846	0.024204
231	C	0.328624	0.138876	0.024187
232	N	0.314484	0.104341	0.024561
233	N	0.304382	0.203674	0.02456
234	C	0.290057	0.249646	0.026173
235	C	0.301125	0.285227	0.030269
236	C	0.276853	0.296984	0.029579
237	N	0.336806	0.307846	0.035756
238	N	0.286928	0.332042	0.034381
239	O	0.305048	0.350901	0.002715
240	O	0.299375	0.344646	0.07226
241	C	0.31349	0.237239	0.026162
242	C	0.280036	0.496343	0.354709
243	C	0.291551	0.031581	0.355369
244	H	0.317299	0.048123	0.352372
245	H	0.298072	0.489036	0.3513
246	C	0.28092	0.079883	0.026168
247	C	0.324779	0.189535	0.35752
248	N	0.30975	0.154846	0.357536
249	C	0.328624	0.138876	0.35752
250	N	0.314484	0.104341	0.357895
251	N	0.304382	0.203674	0.357895
252	C	0.290057	0.249646	0.359508
253	C	0.301125	0.285227	0.363603
254	C	0.276853	0.296984	0.362913
255	N	0.336806	0.307846	0.369089
256	N	0.286928	0.332042	0.367716
257	O	0.305048	0.350901	0.336048
258	O	0.299375	0.344646	0.405595
259	C	0.31349	0.237239	0.359494
260	C	0.280036	0.496343	0.688042
261	C	0.291551	0.031581	0.688702
262	H	0.317299	0.048123	0.685706
263	H	0.298072	0.489036	0.684634
264	C	0.28092	0.079883	0.359501
265	C	0.324779	0.189535	0.690853
266	N	0.30975	0.154846	0.69087
267	C	0.328624	0.138876	0.690853
268	N	0.314484	0.104341	0.691228
269	N	0.304382	0.203674	0.691228
270	C	0.290057	0.249646	0.692841
271	C	0.301125	0.285227	0.696936
272	C	0.276853	0.296984	0.696247
273	N	0.336806	0.307846	0.702422
274	N	0.286928	0.332042	0.701049
275	O	0.305048	0.350901	0.669382
276	O	0.299375	0.344646	0.738928
277	C	0.31349	0.237239	0.692828
278	C	0.280036	0.496343	0.021376
279	C	0.291551	0.031581	0.022036
280	H	0.317299	0.048123	0.019039
281	H	0.298072	0.489036	0.017966
282	C	0.28092	0.079883	0.692834
283	C	0.324779	0.689536	0.024187
284	N	0.30975	0.654847	0.024204
285	C	0.328624	0.638877	0.024187
286	N	0.314485	0.604341	0.024561
287	N	0.304382	0.703674	0.02456
288	C	0.290058	0.749647	0.026173
289	C	0.301125	0.785227	0.030269
290	C	0.276854	0.796984	0.029579
291	N	0.336806	0.807846	0.035756
292	N	0.286929	0.832042	0.034381
293	O	0.305048	0.850902	0.002715
294	O	0.299375	0.844647	0.07226
295	C	0.31349	0.737239	0.026162
296	C	0.280036	0.996343	0.354709
297	C	0.291551	0.531582	0.355369
298	H	0.317298	0.548123	0.352372
299	H	0.298072	0.989036	0.3513
300	C	0.280921	0.579884	0.026168
301	C	0.324779	0.689536	0.35752
302	N	0.30975	0.654847	0.357536
303	C	0.328624	0.638877	0.35752
304	N	0.314485	0.604341	0.357895
305	N	0.304382	0.703674	0.357895
306	C	0.290058	0.749647	0.359508
307	C	0.301125	0.785227	0.363603
308	C	0.276854	0.796984	0.362913
309	N	0.336806	0.807846	0.369089
310	N	0.286929	0.832042	0.367716
311	O	0.305048	0.850902	0.336048
312	O	0.299375	0.844647	0.405595
313	C	0.31349	0.737239	0.359494
314	C	0.280036	0.996343	0.688042
315	C	0.291551	0.531582	0.688702
316	H	0.317298	0.548123	0.685706
317	H	0.298072	0.989036	0.684634
318	C	0.280921	0.579884	0.359501
319	C	0.324779	0.689536	0.690853
320	N	0.30975	0.654847	0.69087
321	C	0.328624	0.638877	0.690853
322	N	0.314485	0.604341	0.691228
323	N	0.304382	0.703674	0.691228
324	C	0.290058	0.749647	0.692841
325	C	0.301125	0.785227	0.696936
326	C	0.276854	0.796984	0.696247
327	N	0.336806	0.807846	0.702422
328	N	0.286929	0.832042	0.701049
329	O	0.305048	0.850902	0.669382
330	O	0.299375	0.844647	0.738928
331	C	0.31349	0.737239	0.692828
332	C	0.280036	0.996343	0.021376
333	C	0.291551	0.531582	0.022036
334	H	0.317298	0.548123	0.019039
335	H	0.298072	0.989036	0.017966
336	C	0.280921	0.579884	0.692834
337	H	0.339116	0.254448	0.028054
338	H	0.339116	0.254448	0.361388
339	H	0.339116	0.254448	0.694721
340	H	0.339117	0.754448	0.028054
341	H	0.339117	0.754448	0.361388
342	H	0.339117	0.754448	0.694721
343	C	0.379282	0.19338	0.024187
344	N	0.359623	0.208409	0.024201
345	N	0.363314	0.158536	0.024201
346	N	0.413819	0.213776	0.024556
347	O	0.345157	0.322475	0.073492
348	O	0.350762	0.328707	0.00397
349	C	0.486577	0.2636	0.355362
350	C	0.474116	0.228101	0.026165
351	C	0.498628	0.217033	0.030258
352	H	0.470036	0.272809	0.352386
353	N	0.485567	0.18135	0.035723
354	O	0.491844	0.172986	0.07345
355	O	0.492472	0.167406	0.003922
356	C	0.438276	0.204669	0.026157
357	H	0.429858	0.179042	0.028052
358	C	0.379282	0.19338	0.35752
359	N	0.359623	0.208409	0.357536
360	N	0.363314	0.158536	0.357536
361	N	0.413819	0.213776	0.357888
362	O	0.345157	0.322475	0.406826
363	O	0.350762	0.328707	0.337302
364	C	0.486577	0.2636	0.688699
365	C	0.474116	0.228101	0.359498
366	C	0.498628	0.217033	0.36359
367	H	0.470036	0.272809	0.685719
368	N	0.485567	0.18135	0.369058
369	O	0.491844	0.172986	0.406785
370	O	0.492472	0.167406	0.337256
371	C	0.438276	0.204669	0.359491
372	H	0.429858	0.179042	0.361385
373	C	0.379282	0.19338	0.690853
374	N	0.359623	0.208409	0.69087
375	N	0.363314	0.158536	0.69087
376	N	0.413819	0.213776	0.691221
377	O	0.345157	0.322475	0.740159
378	O	0.350762	0.328707	0.670637
379	C	0.486577	0.2636	0.02203
380	C	0.474116	0.228101	0.692831
381	C	0.498628	0.217033	0.696926
382	H	0.470036	0.272809	0.019053
383	N	0.485567	0.18135	0.702391
384	O	0.491844	0.172986	0.740118
385	O	0.492472	0.167406	0.670589
386	C	0.438276	0.204669	0.692824
387	H	0.429858	0.179042	0.694718
388	C	0.379283	0.69338	0.024187
389	N	0.359622	0.708409	0.024201
390	N	0.363314	0.658538	0.024201
391	N	0.413818	0.713775	0.024556
392	O	0.345158	0.822475	0.073492
393	O	0.350761	0.828705	0.00397
394	C	0.486578	0.7636	0.355362
395	C	0.474115	0.7281	0.026165
396	C	0.498628	0.717033	0.030258
397	H	0.470036	0.772809	0.352386
398	N	0.485567	0.681351	0.035723
399	O	0.491843	0.672985	0.07345
400	O	0.492471	0.667406	0.003922
401	C	0.438276	0.704669	0.026157
402	H	0.429858	0.679043	0.028052
403	C	0.379283	0.69338	0.35752
404	N	0.359622	0.708409	0.357536
405	N	0.363314	0.658538	0.357536
406	N	0.413818	0.713775	0.357888
407	O	0.345158	0.822475	0.406826
408	O	0.350761	0.828705	0.337302
409	C	0.486578	0.7636	0.688699
410	C	0.474115	0.7281	0.359498
411	C	0.498628	0.717033	0.36359
412	H	0.470036	0.772809	0.685719
413	N	0.485567	0.681351	0.369058
414	O	0.491843	0.672985	0.406785
415	O	0.492471	0.667406	0.337256
416	C	0.438276	0.704669	0.359491
417	H	0.429858	0.679043	0.361385
418	C	0.379283	0.69338	0.690853
419	N	0.359622	0.708409	0.69087
420	N	0.363314	0.658538	0.69087
421	N	0.413818	0.713775	0.691221
422	O	0.345158	0.822475	0.740159
423	O	0.350761	0.828705	0.670637
424	C	0.486578	0.7636	0.02203
425	C	0.474115	0.7281	0.692831
426	C	0.498628	0.717033	0.696926
427	H	0.470036	0.772809	0.019053
428	N	0.485567	0.681351	0.702391
429	O	0.491843	0.672985	0.740118
430	O	0.492471	0.667406	0.670589
431	C	0.438276	0.704669	0.692824
432	H	0.429858	0.679043	0.694718
433	C	0.642742	0.319568	0.02364
434	N	0.663939	0.306259	0.023675
435	C	0.698589	0.326805	0.023631
436	N	0.711899	0.361313	0.023672
437	C	0.691352	0.375417	0.023634
438	N	0.656848	0.354221	0.023678
439	N	0.608558	0.297529	0.024102
440	N	0.703497	0.4096	0.024101
441	N	0.720628	0.314661	0.024096
442	C	0.879282	0.19338	0.024187
443	N	0.859623	0.208409	0.024201
444	C	0.824779	0.189535	0.024187
445	N	0.80975	0.154846	0.024204
446	C	0.828624	0.138876	0.024187
447	N	0.863312	0.158536	0.024201
448	N	0.913819	0.213776	0.024556
449	N	0.814484	0.104341	0.024561
450	N	0.804382	0.203674	0.02456
451	C	0.741128	0.273272	0.358098
452	C	0.730832	0.238124	0.354713
453	C	0.754558	0.226608	0.355372
454	C	0.790056	0.249646	0.026173
455	C	0.801124	0.285227	0.030269
456	H	0.745352	0.20086	0.352376
457	H	0.70549	0.220087	0.351304
458	C	0.776853	0.296984	0.029579
459	N	0.836806	0.307846	0.035756
460	N	0.786928	0.332042	0.034381
461	O	0.845158	0.322475	0.073492
462	O	0.805048	0.350901	0.002715
463	O	0.850761	0.328707	0.00397
464	O	0.799374	0.344646	0.07226
465	C	0.71501	0.282201	0.356748
466	H	0.690013	0.262981	0.354496
467	C	0.813489	0.237239	0.026162
468	H	0.839116	0.254448	0.028054
469	C	0.744887	0.471489	0.358101
470	C	0.780035	0.496343	0.354709
471	C	0.791549	0.031581	0.355369
472	C	0.768512	0.044043	0.026178
473	C	0.732932	0.019531	0.030282
474	H	0.817299	0.048123	0.352372
475	H	0.798072	0.489036	0.3513
476	C	0.721176	0.483503	0.029586
477	N	0.710312	0.032592	0.035761
478	N	0.686118	0.458519	0.03441
479	O	0.695679	0.026314	0.073492
480	O	0.667247	0.457776	0.002759
481	O	0.689457	0.025688	0.003966
482	O	0.67353	0.458365	0.0723
483	C	0.735959	0.436442	0.356752
484	H	0.755178	0.430665	0.3545
485	C	0.78092	0.079883	0.026168
486	H	0.763711	0.088301	0.028063
487	C	0.54667	0.277029	0.358101
488	C	0.521816	0.287325	0.354709
489	C	0.986577	0.2636	0.355362
490	C	0.974116	0.228101	0.026165
491	C	0.998628	0.217033	0.030258
492	H	0.970036	0.272809	0.352386
493	H	0.529123	0.31267	0.351321
494	C	0.534656	0.241304	0.029566
495	N	0.985567	0.18135	0.035723
496	N	0.559641	0.231229	0.034376
497	O	0.991844	0.172986	0.07345
498	O	0.560382	0.21311	0.002715
499	O	0.99247	0.167406	0.003922
500	O	0.559795	0.218784	0.072258
501	C	0.581717	0.30315	0.356755
502	H	0.587494	0.328144	0.354506
503	C	0.938276	0.204669	0.026157
504	H	0.929858	0.179042	0.028052
505	C	0.642742	0.319568	0.356975
506	N	0.663939	0.306259	0.357009
507	C	0.698589	0.326805	0.356965
508	N	0.711899	0.361313	0.357005
509	C	0.691352	0.375417	0.356968
510	N	0.656848	0.354221	0.357012
511	N	0.608558	0.297529	0.357435
512	N	0.703497	0.4096	0.357435
513	N	0.720628	0.314661	0.357428
514	C	0.879282	0.19338	0.35752
515	N	0.859623	0.208409	0.357536
516	C	0.824779	0.189535	0.35752
517	N	0.80975	0.154846	0.357536
518	C	0.828624	0.138876	0.35752
519	N	0.863312	0.158536	0.357536
520	N	0.913819	0.213776	0.357888
521	N	0.814484	0.104341	0.357895
522	N	0.804382	0.203674	0.357895
523	C	0.741128	0.273272	0.691431
524	C	0.730832	0.238124	0.688046
525	C	0.754558	0.226608	0.688705
526	C	0.790056	0.249646	0.359508
527	C	0.801124	0.285227	0.363603
528	H	0.745352	0.20086	0.685709
529	H	0.70549	0.220087	0.684637
530	C	0.776853	0.296984	0.362913
531	N	0.836806	0.307846	0.369089
532	N	0.786928	0.332042	0.367716
533	O	0.845158	0.322475	0.406826
534	O	0.805048	0.350901	0.336048
535	O	0.850761	0.328707	0.337302
536	O	0.799374	0.344646	0.405595
537	C	0.71501	0.282201	0.690082
538	H	0.690013	0.262981	0.687829
539	C	0.813489	0.237239	0.359494
540	H	0.839116	0.254448	0.361388
541	C	0.744887	0.471489	0.691434
542	C	0.780035	0.496343	0.688042
543	C	0.791549	0.031581	0.688702
544	C	0.768512	0.044043	0.359511
545	C	0.732932	0.019531	0.363613
546	H	0.817299	0.048123	0.685706
547	H	0.798072	0.489036	0.684634
548	C	0.721176	0.483503	0.36292
549	N	0.710312	0.032592	0.369095
550	N	0.686118	0.458519	0.367743
551	O	0.695679	0.026314	0.406826
552	O	0.667247	0.457776	0.336093
553	O	0.689457	0.025688	0.337301
554	O	0.67353	0.458365	0.405635
555	C	0.735959	0.436442	0.690085
556	H	0.755178	0.430665	0.687833
557	C	0.78092	0.079883	0.359501
558	H	0.763711	0.088301	0.361395
559	C	0.54667	0.277029	0.691434
560	C	0.521816	0.287325	0.688042
561	C	0.986577	0.2636	0.688699
562	C	0.974116	0.228101	0.359498
563	C	0.998628	0.217033	0.36359
564	H	0.970036	0.272809	0.685719
565	H	0.529123	0.31267	0.684654
566	C	0.534656	0.241304	0.3629
567	N	0.985567	0.18135	0.369058
568	N	0.559641	0.231229	0.367709
569	O	0.991844	0.172986	0.406785
570	O	0.560382	0.21311	0.336047
571	O	0.99247	0.167406	0.337256
572	O	0.559795	0.218784	0.405591
573	C	0.581717	0.30315	0.690088
574	H	0.587494	0.328144	0.687843
575	C	0.938276	0.204669	0.359491
576	H	0.929858	0.179042	0.361385
577	C	0.642742	0.319568	0.690308
578	N	0.663939	0.306259	0.690342
579	C	0.698589	0.326805	0.690298
580	N	0.711899	0.361313	0.690339
581	C	0.691352	0.375417	0.690301
582	N	0.656848	0.354221	0.690345
583	N	0.608558	0.297529	0.690768
584	N	0.703497	0.4096	0.690768
585	N	0.720628	0.314661	0.690761
586	C	0.879282	0.19338	0.690853
587	N	0.859623	0.208409	0.69087
588	C	0.824779	0.189535	0.690853
589	N	0.80975	0.154846	0.69087
590	C	0.828624	0.138876	0.690853
591	N	0.863312	0.158536	0.69087
592	N	0.913819	0.213776	0.691221
593	N	0.814484	0.104341	0.691228
594	N	0.804382	0.203674	0.691228
595	C	0.741128	0.273272	0.024764
596	C	0.730832	0.238124	0.021378
597	C	0.754558	0.226608	0.022039
598	C	0.790056	0.249646	0.692841
599	C	0.801124	0.285227	0.696936
600	H	0.745352	0.20086	0.019043
601	H	0.70549	0.220087	0.017971
602	C	0.776853	0.296984	0.696247
603	N	0.836806	0.307846	0.702422
604	N	0.786928	0.332042	0.701049
605	O	0.845158	0.322475	0.740159
606	O	0.805048	0.350901	0.669382
607	O	0.850761	0.328707	0.670637
608	O	0.799374	0.344646	0.738928
609	C	0.71501	0.282201	0.023415
610	H	0.690013	0.262981	0.021164
611	C	0.813489	0.237239	0.692828
612	H	0.839116	0.254448	0.694721
613	C	0.744887	0.471489	0.024768
614	C	0.780035	0.496343	0.021376
615	C	0.791549	0.031581	0.022036
616	C	0.768512	0.044043	0.692845
617	C	0.732932	0.019531	0.69695
618	H	0.817299	0.048123	0.019039
619	H	0.798072	0.489036	0.017966
620	C	0.721176	0.483503	0.696253
621	N	0.710312	0.032592	0.702428
622	N	0.686118	0.458519	0.701076
623	O	0.695679	0.026314	0.740159
624	O	0.667247	0.457776	0.669426
625	O	0.689457	0.025688	0.670633
626	O	0.67353	0.458365	0.738968
627	C	0.735959	0.436442	0.023418
628	H	0.755178	0.430665	0.021165
629	C	0.78092	0.079883	0.692834
630	H	0.763711	0.088301	0.694732
631	C	0.54667	0.277029	0.024766
632	C	0.521816	0.287325	0.021375
633	C	0.986577	0.2636	0.02203
634	C	0.974116	0.228101	0.692831
635	C	0.998628	0.217033	0.696926
636	H	0.970036	0.272809	0.019053
637	H	0.529123	0.31267	0.017988
638	C	0.534656	0.241304	0.696233
639	N	0.985567	0.18135	0.702391
640	N	0.559641	0.231229	0.701042
641	O	0.991844	0.172986	0.740118
642	O	0.560382	0.21311	0.669382
643	O	0.99247	0.167406	0.670589
644	O	0.559795	0.218784	0.738924
645	C	0.581717	0.30315	0.023422
646	H	0.587494	0.328144	0.021175
647	C	0.938276	0.204669	0.692824
648	H	0.929858	0.179042	0.694718
649	C	0.642743	0.819568	0.02364
650	N	0.663938	0.806259	0.023675
651	C	0.69859	0.826806	0.023631
652	N	0.7119	0.861313	0.023672
653	C	0.691354	0.875417	0.023634
654	N	0.656847	0.854221	0.023678
655	N	0.608559	0.797529	0.024102
656	N	0.703495	0.9096	0.024101
657	N	0.720629	0.814662	0.024096
658	C	0.879283	0.69338	0.024187
659	N	0.859621	0.708409	0.024201
660	C	0.82478	0.689536	0.024187
661	N	0.80975	0.654847	0.024204
662	C	0.828623	0.638877	0.024187
663	N	0.863313	0.658538	0.024201
664	N	0.913817	0.713775	0.024556
665	N	0.814485	0.604341	0.024561
666	N	0.804381	0.703674	0.02456
667	C	0.741129	0.773272	0.358098
668	C	0.730834	0.738125	0.354713
669	C	0.754557	0.726608	0.355372
670	C	0.790058	0.749647	0.026173
671	C	0.801125	0.785227	0.030269
672	H	0.745351	0.700861	0.352376
673	H	0.705491	0.720087	0.351304
674	C	0.776854	0.796984	0.029579
675	N	0.836805	0.807846	0.035756
676	N	0.786929	0.832042	0.034381
677	O	0.845157	0.822475	0.073492
678	O	0.805047	0.850902	0.002715
679	O	0.85076	0.828705	0.00397
680	O	0.799375	0.844647	0.07226
681	C	0.715009	0.782202	0.356748
682	H	0.690015	0.762981	0.354496
683	C	0.81349	0.737239	0.026162
684	H	0.839117	0.754448	0.028054
685	C	0.744886	0.971489	0.358101
686	C	0.780036	0.996343	0.354709
687	C	0.791551	0.531582	0.355369
688	C	0.768513	0.544044	0.026178
689	C	0.732933	0.51953	0.030282
690	H	0.817298	0.548123	0.352372
691	H	0.798073	0.989036	0.3513
692	C	0.721175	0.983503	0.029586
693	N	0.710312	0.532591	0.035761
694	N	0.686119	0.958519	0.03441
695	O	0.695678	0.526315	0.073492
696	O	0.667248	0.957776	0.002759
697	O	0.689458	0.525688	0.003966
698	O	0.673531	0.958365	0.0723
699	C	0.73596	0.936442	0.356752
700	H	0.755179	0.930666	0.3545
701	C	0.780921	0.579884	0.026168
702	H	0.763713	0.588302	0.028063
703	C	0.54667	0.777029	0.358101
704	C	0.521817	0.787325	0.354709
705	C	0.986578	0.7636	0.355362
706	C	0.974114	0.7281	0.026165
707	C	0.998627	0.717033	0.030258
708	H	0.970035	0.772809	0.352386
709	H	0.529124	0.81267	0.351321
710	C	0.534657	0.741304	0.029566
711	N	0.985567	0.681351	0.035723
712	N	0.55964	0.73123	0.034376
713	O	0.991843	0.672985	0.07345
714	O	0.560383	0.71311	0.002715
715	O	0.992471	0.667406	0.003922
716	O	0.559794	0.718784	0.072258
717	C	0.581718	0.80315	0.356755
718	H	0.587493	0.828144	0.354506
719	C	0.938275	0.704669	0.026157
720	H	0.929857	0.679043	0.028052
721	C	0.642743	0.819568	0.356975
722	N	0.663938	0.806259	0.357009
723	C	0.69859	0.826806	0.356965
724	N	0.7119	0.861313	0.357005
725	C	0.691354	0.875417	0.356968
726	N	0.656847	0.854221	0.357012
727	N	0.608559	0.797529	0.357435
728	N	0.703495	0.9096	0.357435
729	N	0.720629	0.814662	0.357428
730	C	0.879283	0.69338	0.35752
731	N	0.859621	0.708409	0.357536
732	C	0.82478	0.689536	0.35752
733	N	0.80975	0.654847	0.357536
734	C	0.828623	0.638877	0.35752
735	N	0.863313	0.658538	0.357536
736	N	0.913817	0.713775	0.357888
737	N	0.814485	0.604341	0.357895
738	N	0.804381	0.703674	0.357895
739	C	0.741129	0.773272	0.691431
740	C	0.730834	0.738125	0.688046
741	C	0.754557	0.726608	0.688705
742	C	0.790058	0.749647	0.359508
743	C	0.801125	0.785227	0.363603
744	H	0.745351	0.700861	0.685709
745	H	0.705491	0.720087	0.684637
746	C	0.776854	0.796984	0.362913
747	N	0.836805	0.807846	0.369089
748	N	0.786929	0.832042	0.367716
749	O	0.845157	0.822475	0.406826
750	O	0.805047	0.850902	0.336048
751	O	0.85076	0.828705	0.337302
752	O	0.799375	0.844647	0.405595
753	C	0.715009	0.782202	0.690082
754	H	0.690015	0.762981	0.687829
755	C	0.81349	0.737239	0.359494
756	H	0.839117	0.754448	0.361388
757	C	0.744886	0.971489	0.691434
758	C	0.780036	0.996343	0.688042
759	C	0.791551	0.531582	0.688702
760	C	0.768513	0.544044	0.359511
761	C	0.732933	0.51953	0.363613
762	H	0.817298	0.548123	0.685706
763	H	0.798073	0.989036	0.684634
764	C	0.721175	0.983503	0.36292
765	N	0.710312	0.532591	0.369095
766	N	0.686119	0.958519	0.367743
767	O	0.695678	0.526315	0.406826
768	O	0.667248	0.957776	0.336093
769	O	0.689458	0.525688	0.337301
770	O	0.673531	0.958365	0.405635
771	C	0.73596	0.936442	0.690085
772	H	0.755179	0.930666	0.687833
773	C	0.780921	0.579884	0.359501
774	H	0.763713	0.588302	0.361395
775	C	0.54667	0.777029	0.691434
776	C	0.521817	0.787325	0.688042
777	C	0.986578	0.7636	0.688699
778	C	0.974114	0.7281	0.359498
779	C	0.998627	0.717033	0.36359
780	H	0.970035	0.772809	0.685719
781	H	0.529124	0.81267	0.684654
782	C	0.534657	0.741304	0.3629
783	N	0.985567	0.681351	0.369058
784	N	0.55964	0.73123	0.367709
785	O	0.991843	0.672985	0.406785
786	O	0.560383	0.71311	0.336047
787	O	0.992471	0.667406	0.337256
788	O	0.559794	0.718784	0.405591
789	C	0.581718	0.80315	0.690088
790	H	0.587493	0.828144	0.687843
791	C	0.938275	0.704669	0.359491
792	H	0.929857	0.679043	0.361385
793	C	0.642743	0.819568	0.690308
794	N	0.663938	0.806259	0.690342
795	C	0.69859	0.826806	0.690298
796	N	0.7119	0.861313	0.690339
797	C	0.691354	0.875417	0.690301
798	N	0.656847	0.854221	0.690345
799	N	0.608559	0.797529	0.690768
800	N	0.703495	0.9096	0.690768
801	N	0.720629	0.814662	0.690761
802	C	0.879283	0.69338	0.690853
803	N	0.859621	0.708409	0.69087
804	C	0.82478	0.689536	0.690853
805	N	0.80975	0.654847	0.69087
806	C	0.828623	0.638877	0.690853
807	N	0.863313	0.658538	0.69087
808	N	0.913817	0.713775	0.691221
809	N	0.814485	0.604341	0.691228
810	N	0.804381	0.703674	0.691228
811	C	0.741129	0.773272	0.024764
812	C	0.730834	0.738125	0.021378
813	C	0.754557	0.726608	0.022039
814	C	0.790058	0.749647	0.692841
815	C	0.801125	0.785227	0.696936
816	H	0.745351	0.700861	0.019043
817	H	0.705491	0.720087	0.017971
818	C	0.776854	0.796984	0.696247
819	N	0.836805	0.807846	0.702422
820	N	0.786929	0.832042	0.701049
821	O	0.845157	0.822475	0.740159
822	O	0.805047	0.850902	0.669382
823	O	0.85076	0.828705	0.670637
824	O	0.799375	0.844647	0.738928
825	C	0.715009	0.782202	0.023415
826	H	0.690015	0.762981	0.021164
827	C	0.81349	0.737239	0.692828
828	H	0.839117	0.754448	0.694721
829	C	0.744886	0.971489	0.024768
830	C	0.780036	0.996343	0.021376
831	C	0.791551	0.531582	0.022036
832	C	0.768513	0.544044	0.692845
833	C	0.732933	0.51953	0.69695
834	H	0.817298	0.548123	0.019039
835	H	0.798073	0.989036	0.017966
836	C	0.721175	0.983503	0.696253
837	N	0.710312	0.532591	0.702428
838	N	0.686119	0.958519	0.701076
839	O	0.695678	0.526315	0.740159
840	O	0.667248	0.957776	0.669426
841	O	0.689458	0.525688	0.670633
842	O	0.673531	0.958365	0.738968
843	C	0.73596	0.936442	0.023418
844	H	0.755179	0.930666	0.021165
845	C	0.780921	0.579884	0.692834
846	H	0.763713	0.588302	0.694732
847	C	0.54667	0.777029	0.024766
848	C	0.521817	0.787325	0.021375
849	C	0.986578	0.7636	0.02203
850	C	0.974114	0.7281	0.692831
851	C	0.998627	0.717033	0.696926
852	H	0.970035	0.772809	0.019053
853	H	0.529124	0.81267	0.017988
854	C	0.534657	0.741304	0.696233
855	N	0.985567	0.681351	0.702391
856	N	0.55964	0.73123	0.701042
857	O	0.991843	0.672985	0.740118
858	O	0.560383	0.71311	0.669382
859	O	0.992471	0.667406	0.670589
860	O	0.559794	0.718784	0.738924
861	C	0.581718	0.80315	0.023422
862	H	0.587493	0.828144	0.021175
863	C	0.938275	0.704669	0.692824
864	H	0.929857	0.679043	0.694718
