data_C720H360N144_2018-02-15_10:43:32
#******************************************
#
# CIF file created by Zeo++
# Zeo++ is an open source package to
# analyze microporous materials
#
#*******************************************

_cell_length_a		46.3559   
_cell_length_b		46.3559   
_cell_length_c		29.5146   
_cell_angle_alpha		90   
_cell_angle_beta		90   
_cell_angle_gamma		120   

_symmetry_space_group_name_H-M		'P1'
_symmetry_Int_Tables_number		1
_symmetry_cell_setting		Monoclinic

loop_
_symmetry_equiv_pos_as_xyz
'+x,+y,+z'

loop_
_atom_site_label
_atom_site_type_symbol
_atom_site_fract_x
_atom_site_fract_y
_atom_site_fract_z
1	C	0.030479	0.267271	0.028279
2	C	0.049772	0.303018	0.358575
3	C	0.08283	0.32035	0.34161
4	C	0.09735	0.300727	0.997374
5	C	0.082862	0.266583	0.008285
6	C	0.049797	0.250838	0.025236
7	H	0.039067	0.317252	0.363986
8	H	0.121922	0.31301	0.988039
9	H	0.039122	0.225908	0.030708
10	C	0.164984	0.252221	0.003557
11	C	0.141125	0.234977	0.038057
12	C	0.110401	0.235037	0.038075
13	C	0.103733	0.252203	0.003527
14	N	0.126414	0.264319	0.302662
15	H	0.095954	0.227458	0.066611
16	H	0.148034	0.227484	0.066631
17	N	0.154428	0.264334	0.30268
18	C	0.103641	0.355605	0.003533
19	C	0.110289	0.379431	0.038094
20	C	0.141071	0.410149	0.038184
21	C	0.164927	0.416914	0.003635
22	N	0.154404	0.394209	0.302801
23	H	0.147918	0.424549	0.066764
24	H	0.095879	0.372491	0.066663
25	N	0.126402	0.366199	0.302756
26	C	0.030479	0.267271	0.361614
27	C	0.049772	0.303018	0.691908
28	C	0.08283	0.32035	0.674944
29	C	0.09735	0.300727	0.330705
30	C	0.082862	0.266583	0.341621
31	C	0.049797	0.250838	0.358568
32	H	0.039067	0.317252	0.697319
33	H	0.121922	0.31301	0.321374
34	H	0.039122	0.225908	0.364043
35	C	0.164984	0.252221	0.33689
36	C	0.141125	0.234977	0.371389
37	C	0.110401	0.235037	0.371409
38	C	0.103733	0.252203	0.336858
39	N	0.126414	0.264319	0.635997
40	H	0.095954	0.227458	0.399944
41	H	0.148034	0.227484	0.399965
42	N	0.154428	0.264334	0.636014
43	C	0.103641	0.355605	0.336866
44	C	0.110289	0.379431	0.371426
45	C	0.141071	0.410149	0.371518
46	C	0.164927	0.416914	0.336969
47	N	0.154404	0.394209	0.636136
48	H	0.147918	0.424549	0.400097
49	H	0.095879	0.372491	0.399995
50	N	0.126402	0.366199	0.636088
51	C	0.030479	0.267271	0.694947
52	C	0.049772	0.303018	0.025241
53	C	0.08283	0.32035	0.008276
54	C	0.09735	0.300727	0.664037
55	C	0.082862	0.266583	0.674954
56	C	0.049797	0.250838	0.691901
57	H	0.039067	0.317252	0.030653
58	H	0.121922	0.31301	0.654706
59	H	0.039122	0.225908	0.697377
60	C	0.164984	0.252221	0.670224
61	C	0.141125	0.234977	0.704725
62	C	0.110401	0.235037	0.704742
63	C	0.103733	0.252203	0.67019
64	N	0.126414	0.264319	0.96933
65	H	0.095954	0.227458	0.733277
66	H	0.148034	0.227484	0.733298
67	N	0.154428	0.264334	0.969347
68	C	0.103641	0.355605	0.6702
69	C	0.110289	0.379431	0.704763
70	C	0.141071	0.410149	0.704851
71	C	0.164927	0.416914	0.670302
72	N	0.154404	0.394209	0.969469
73	H	0.147918	0.424549	0.73343
74	H	0.095879	0.372491	0.733328
75	N	0.126402	0.366199	0.969425
76	C	0.030477	0.767268	0.028279
77	C	0.049771	0.803018	0.358575
78	C	0.082829	0.82035	0.34161
79	C	0.09735	0.800727	0.997374
80	C	0.082861	0.766583	0.008285
81	C	0.049796	0.750838	0.025236
82	H	0.039067	0.817252	0.363986
83	H	0.121921	0.81301	0.988039
84	H	0.039122	0.725909	0.030708
85	C	0.164983	0.752221	0.003557
86	C	0.141123	0.734976	0.038057
87	C	0.1104	0.735036	0.038075
88	C	0.103732	0.752203	0.003527
89	N	0.126414	0.764319	0.302662
90	H	0.095954	0.727458	0.066611
91	H	0.148032	0.727483	0.066631
92	N	0.154428	0.764334	0.30268
93	C	0.10364	0.855605	0.003533
94	C	0.110288	0.879428	0.038094
95	C	0.141069	0.910147	0.038184
96	C	0.164927	0.916914	0.003635
97	N	0.154402	0.894207	0.302801
98	H	0.147918	0.924547	0.066764
99	H	0.09588	0.872491	0.066663
100	N	0.126402	0.866199	0.302756
101	C	0.030477	0.767268	0.361614
102	C	0.049771	0.803018	0.691908
103	C	0.082829	0.82035	0.674944
104	C	0.09735	0.800727	0.330705
105	C	0.082861	0.766583	0.341621
106	C	0.049796	0.750838	0.358568
107	H	0.039067	0.817252	0.697319
108	H	0.121921	0.81301	0.321374
109	H	0.039122	0.725909	0.364043
110	C	0.164983	0.752221	0.33689
111	C	0.141123	0.734976	0.371389
112	C	0.1104	0.735036	0.371409
113	C	0.103732	0.752203	0.336858
114	N	0.126414	0.764319	0.635997
115	H	0.095954	0.727458	0.399944
116	H	0.148032	0.727483	0.399965
117	N	0.154428	0.764334	0.636014
118	C	0.10364	0.855605	0.336866
119	C	0.110288	0.879428	0.371426
120	C	0.141069	0.910147	0.371518
121	C	0.164927	0.916914	0.336969
122	N	0.154402	0.894207	0.636136
123	H	0.147918	0.924547	0.400097
124	H	0.09588	0.872491	0.399995
125	N	0.126402	0.866199	0.636088
126	C	0.030477	0.767268	0.694947
127	C	0.049771	0.803018	0.025241
128	C	0.082829	0.82035	0.008276
129	C	0.09735	0.800727	0.664037
130	C	0.082861	0.766583	0.674954
131	C	0.049796	0.750838	0.691901
132	H	0.039067	0.817252	0.030653
133	H	0.121921	0.81301	0.654706
134	H	0.039122	0.725909	0.697377
135	C	0.164983	0.752221	0.670224
136	C	0.141123	0.734976	0.704725
137	C	0.1104	0.735036	0.704742
138	C	0.103732	0.752203	0.67019
139	N	0.126414	0.764319	0.96933
140	H	0.095954	0.727458	0.733277
141	H	0.148032	0.727483	0.733298
142	N	0.154428	0.764334	0.969347
143	C	0.10364	0.855605	0.6702
144	C	0.110288	0.879428	0.704763
145	C	0.141069	0.910147	0.704851
146	C	0.164927	0.916914	0.670302
147	N	0.154402	0.894207	0.969469
148	H	0.147918	0.924547	0.73343
149	H	0.09588	0.872491	0.733328
150	N	0.126402	0.866199	0.969425
151	C	0.27142	0.249154	0.028293
152	C	0.254958	0.213406	0.025265
153	C	0.270659	0.196092	0.008148
154	H	0.230029	0.199171	0.030741
155	C	0.253302	0.267288	0.028307
156	C	0.217548	0.250853	0.358629
157	C	0.200234	0.266598	0.341651
158	C	0.219888	0.300764	0.997513
159	C	0.254041	0.320383	0.008344
160	C	0.269769	0.303036	0.02523
161	H	0.203303	0.225918	0.364033
162	H	0.207592	0.313037	0.988151
163	C	0.271372	0.026382	0.028274
164	C	0.270644	0.078749	0.341665
165	C	0.254904	0.045661	0.358504
166	H	0.229981	0.034959	0.364047
167	C	0.253261	0.490128	0.028294
168	C	0.269737	0.470851	0.358578
169	C	0.253981	0.437719	0.341892
170	C	0.219804	0.423134	0.997872
171	C	0.20017	0.437684	0.008519
172	C	0.217512	0.470816	0.025207
173	H	0.207506	0.398541	0.988598
174	H	0.203277	0.481512	0.030674
175	C	0.268467	0.416964	0.003672
176	C	0.285573	0.410214	0.038234
177	C	0.285515	0.379433	0.038215
178	C	0.268473	0.355627	0.003581
179	N	0.25634	0.366249	0.3028
180	H	0.29304	0.372538	0.066777
181	H	0.293005	0.424559	0.066861
182	N	0.256327	0.394247	0.302846
183	C	0.256167	0.09952	0.003482
184	C	0.239045	0.106253	0.038036
185	C	0.239126	0.137045	0.038028
186	C	0.256272	0.160839	0.003432
187	N	0.268345	0.150231	0.30257
188	H	0.231599	0.143951	0.066577
189	H	0.231592	0.091894	0.06665
190	N	0.268308	0.122207	0.302617
191	C	0.27142	0.249154	0.361628
192	C	0.254958	0.213406	0.358599
193	C	0.270659	0.196092	0.341478
194	H	0.230029	0.199171	0.364074
195	C	0.253302	0.267288	0.361641
196	C	0.217548	0.250853	0.691962
197	C	0.200234	0.266598	0.674984
198	C	0.219888	0.300764	0.330847
199	C	0.254041	0.320383	0.341678
200	C	0.269769	0.303036	0.358565
201	H	0.203303	0.225918	0.697366
202	H	0.207592	0.313037	0.321483
203	C	0.271372	0.026382	0.361607
204	C	0.270644	0.078749	0.674998
205	C	0.254904	0.045661	0.691837
206	H	0.229981	0.034959	0.69738
207	C	0.253261	0.490128	0.361628
208	C	0.269737	0.470851	0.691911
209	C	0.253981	0.437719	0.675225
210	C	0.219804	0.423134	0.331206
211	C	0.20017	0.437684	0.341851
212	C	0.217512	0.470816	0.358541
213	H	0.207506	0.398541	0.32193
214	H	0.203277	0.481512	0.364009
215	C	0.268467	0.416964	0.337006
216	C	0.285573	0.410214	0.371568
217	C	0.285515	0.379433	0.371548
218	C	0.268473	0.355627	0.336915
219	N	0.25634	0.366249	0.636136
220	H	0.29304	0.372538	0.40011
221	H	0.293005	0.424559	0.400195
222	N	0.256327	0.394247	0.63618
223	C	0.256167	0.09952	0.336817
224	C	0.239045	0.106253	0.371369
225	C	0.239126	0.137045	0.371362
226	C	0.256272	0.160839	0.336766
227	N	0.268345	0.150231	0.635905
228	H	0.231599	0.143951	0.39991
229	H	0.231592	0.091894	0.399985
230	N	0.268308	0.122207	0.635949
231	C	0.27142	0.249154	0.694961
232	C	0.254958	0.213406	0.691932
233	C	0.270659	0.196092	0.674811
234	H	0.230029	0.199171	0.697407
235	C	0.253302	0.267288	0.694974
236	C	0.217548	0.250853	0.025294
237	C	0.200234	0.266598	0.008316
238	C	0.219888	0.300764	0.664179
239	C	0.254041	0.320383	0.675011
240	C	0.269769	0.303036	0.691898
241	H	0.203303	0.225918	0.030701
242	H	0.207592	0.313037	0.654818
243	C	0.271372	0.026382	0.69494
244	C	0.270644	0.078749	0.00833
245	C	0.254904	0.045661	0.02517
246	H	0.229981	0.034959	0.030713
247	C	0.253261	0.490128	0.694961
248	C	0.269737	0.470851	0.025245
249	C	0.253981	0.437719	0.008557
250	C	0.219804	0.423134	0.664539
251	C	0.20017	0.437684	0.675184
252	C	0.217512	0.470816	0.691874
253	H	0.207506	0.398541	0.655265
254	H	0.203277	0.481512	0.697343
255	C	0.268467	0.416964	0.670339
256	C	0.285573	0.410214	0.704902
257	C	0.285515	0.379433	0.704881
258	C	0.268473	0.355627	0.670248
259	N	0.25634	0.366249	0.969469
260	H	0.29304	0.372538	0.733443
261	H	0.293005	0.424559	0.733528
262	N	0.256327	0.394247	0.969513
263	C	0.256167	0.09952	0.670149
264	C	0.239045	0.106253	0.704702
265	C	0.239126	0.137045	0.704695
266	C	0.256272	0.160839	0.670099
267	N	0.268345	0.150231	0.969238
268	H	0.231599	0.143951	0.733243
269	H	0.231592	0.091894	0.733318
270	N	0.268308	0.122207	0.969282
271	C	0.271419	0.749154	0.028293
272	C	0.254958	0.713407	0.025265
273	C	0.270659	0.696092	0.008148
274	H	0.230028	0.699171	0.030741
275	C	0.253302	0.767288	0.028307
276	C	0.217548	0.750853	0.358629
277	C	0.200234	0.766598	0.341651
278	C	0.219886	0.800762	0.997513
279	C	0.254039	0.82038	0.008344
280	C	0.269769	0.803036	0.02523
281	H	0.203303	0.725919	0.364033
282	H	0.207591	0.813037	0.988151
283	C	0.271371	0.526382	0.028274
284	C	0.270644	0.578749	0.341665
285	C	0.254903	0.545661	0.358504
286	H	0.22998	0.534958	0.364047
287	C	0.25326	0.990128	0.028294
288	C	0.269737	0.970851	0.358578
289	C	0.253981	0.937719	0.341892
290	C	0.219803	0.923132	0.997872
291	C	0.20017	0.937684	0.008519
292	C	0.217512	0.970816	0.025207
293	H	0.207505	0.898541	0.988598
294	H	0.203277	0.981512	0.030674
295	C	0.268467	0.916964	0.003672
296	C	0.285572	0.910211	0.038234
297	C	0.285514	0.879433	0.038215
298	C	0.268473	0.855627	0.003581
299	N	0.256339	0.866249	0.3028
300	H	0.293039	0.872538	0.066777
301	H	0.293005	0.924559	0.066861
302	N	0.256327	0.894247	0.302846
303	C	0.256167	0.599521	0.003482
304	C	0.239045	0.606254	0.038036
305	C	0.239125	0.637044	0.038028
306	C	0.256271	0.660838	0.003432
307	N	0.268345	0.650231	0.30257
308	H	0.231599	0.643952	0.066577
309	H	0.231591	0.591893	0.06665
310	N	0.268307	0.622206	0.302617
311	C	0.271419	0.749154	0.361628
312	C	0.254958	0.713407	0.358599
313	C	0.270659	0.696092	0.341478
314	H	0.230028	0.699171	0.364074
315	C	0.253302	0.767288	0.361641
316	C	0.217548	0.750853	0.691962
317	C	0.200234	0.766598	0.674984
318	C	0.219886	0.800762	0.330847
319	C	0.254039	0.82038	0.341678
320	C	0.269769	0.803036	0.358565
321	H	0.203303	0.725919	0.697366
322	H	0.207591	0.813037	0.321483
323	C	0.271371	0.526382	0.361607
324	C	0.270644	0.578749	0.674998
325	C	0.254903	0.545661	0.691837
326	H	0.22998	0.534958	0.69738
327	C	0.25326	0.990128	0.361628
328	C	0.269737	0.970851	0.691911
329	C	0.253981	0.937719	0.675225
330	C	0.219803	0.923132	0.331206
331	C	0.20017	0.937684	0.341851
332	C	0.217512	0.970816	0.358541
333	H	0.207505	0.898541	0.32193
334	H	0.203277	0.981512	0.364009
335	C	0.268467	0.916964	0.337006
336	C	0.285572	0.910211	0.371568
337	C	0.285514	0.879433	0.371548
338	C	0.268473	0.855627	0.336915
339	N	0.256339	0.866249	0.636136
340	H	0.293039	0.872538	0.40011
341	H	0.293005	0.924559	0.400195
342	N	0.256327	0.894247	0.63618
343	C	0.256167	0.599521	0.336817
344	C	0.239045	0.606254	0.371369
345	C	0.239125	0.637044	0.371362
346	C	0.256271	0.660838	0.336766
347	N	0.268345	0.650231	0.635905
348	H	0.231599	0.643952	0.39991
349	H	0.231591	0.591893	0.399985
350	N	0.268307	0.622206	0.635949
351	C	0.271419	0.749154	0.694961
352	C	0.254958	0.713407	0.691932
353	C	0.270659	0.696092	0.674811
354	H	0.230028	0.699171	0.697407
355	C	0.253302	0.767288	0.694974
356	C	0.217548	0.750853	0.025294
357	C	0.200234	0.766598	0.008316
358	C	0.219886	0.800762	0.664179
359	C	0.254039	0.82038	0.675011
360	C	0.269769	0.803036	0.691898
361	H	0.203303	0.725919	0.030701
362	H	0.207591	0.813037	0.654818
363	C	0.271371	0.526382	0.69494
364	C	0.270644	0.578749	0.00833
365	C	0.254903	0.545661	0.02517
366	H	0.22998	0.534958	0.030713
367	C	0.25326	0.990128	0.694961
368	C	0.269737	0.970851	0.025245
369	C	0.253981	0.937719	0.008557
370	C	0.219803	0.923132	0.664539
371	C	0.20017	0.937684	0.675184
372	C	0.217512	0.970816	0.691874
373	H	0.207505	0.898541	0.655265
374	H	0.203277	0.981512	0.697343
375	C	0.268467	0.916964	0.670339
376	C	0.285572	0.910211	0.704902
377	C	0.285514	0.879433	0.704881
378	C	0.268473	0.855627	0.670248
379	N	0.256339	0.866249	0.969469
380	H	0.293039	0.872538	0.733443
381	H	0.293005	0.924559	0.733528
382	N	0.256327	0.894247	0.969513
383	C	0.256167	0.599521	0.670149
384	C	0.239045	0.606254	0.704702
385	C	0.239125	0.637044	0.704695
386	C	0.256271	0.660838	0.670099
387	N	0.268345	0.650231	0.969238
388	H	0.231599	0.643952	0.733243
389	H	0.231591	0.591893	0.733318
390	N	0.268307	0.622206	0.969282
391	C	0.304794	0.215726	0.997181
392	C	0.324468	0.249847	0.341556
393	C	0.30717	0.26558	0.358622
394	H	0.321424	0.290506	0.364108
395	H	0.31707	0.203452	0.987745
396	H	0.29469	0.317252	0.030799
397	C	0.307126	0.045707	0.025296
398	C	0.324447	0.078783	0.008387
399	C	0.304799	0.093285	0.997509
400	H	0.321376	0.035024	0.030721
401	H	0.3171	0.117855	0.988148
402	H	0.294668	0.481572	0.364067
403	C	0.359724	0.26421	0.00352
404	C	0.383555	0.281447	0.038054
405	H	0.376624	0.288932	0.066614
406	N	0.370315	0.252114	0.302663
407	C	0.383518	0.106261	0.038155
408	C	0.359696	0.099619	0.003601
409	N	0.370283	0.12229	0.302731
410	H	0.376627	0.091836	0.066712
411	C	0.304794	0.215726	0.330515
412	C	0.324468	0.249847	0.674889
413	C	0.30717	0.26558	0.691959
414	H	0.321424	0.290506	0.697441
415	H	0.31707	0.203452	0.321077
416	H	0.29469	0.317252	0.364131
417	C	0.307126	0.045707	0.358629
418	C	0.324447	0.078783	0.341719
419	C	0.304799	0.093285	0.330842
420	H	0.321376	0.035024	0.364054
421	H	0.3171	0.117855	0.321482
422	H	0.294668	0.481572	0.6974
423	C	0.359724	0.26421	0.336853
424	C	0.383555	0.281447	0.371389
425	H	0.376624	0.288932	0.399948
426	N	0.370315	0.252114	0.635997
427	C	0.383518	0.106261	0.371487
428	C	0.359696	0.099619	0.336935
429	N	0.370283	0.12229	0.636065
430	H	0.376627	0.091836	0.400046
431	C	0.304794	0.215726	0.663847
432	C	0.324468	0.249847	0.008223
433	C	0.30717	0.26558	0.02529
434	H	0.321424	0.290506	0.030775
435	H	0.31707	0.203452	0.654411
436	H	0.29469	0.317252	0.697465
437	C	0.307126	0.045707	0.691962
438	C	0.324447	0.078783	0.675055
439	C	0.304799	0.093285	0.664176
440	H	0.321376	0.035024	0.697387
441	H	0.3171	0.117855	0.654815
442	H	0.294668	0.481572	0.030733
443	C	0.359724	0.26421	0.670187
444	C	0.383555	0.281447	0.704722
445	H	0.376624	0.288932	0.733281
446	N	0.370315	0.252114	0.96933
447	C	0.383518	0.106261	0.704824
448	C	0.359696	0.099619	0.670268
449	N	0.370283	0.12229	0.969398
450	H	0.376627	0.091836	0.733379
451	C	0.304793	0.715726	0.997181
452	C	0.324468	0.749847	0.341556
453	C	0.307169	0.76558	0.358622
454	H	0.321424	0.790506	0.364108
455	H	0.317069	0.703453	0.987745
456	H	0.29469	0.817252	0.030799
457	C	0.307125	0.545706	0.025296
458	C	0.324446	0.578784	0.008387
459	C	0.304798	0.593283	0.997509
460	H	0.321375	0.535023	0.030721
461	H	0.317098	0.617854	0.988148
462	H	0.294667	0.981572	0.364067
463	C	0.359723	0.76421	0.00352
464	C	0.383556	0.781447	0.038054
465	H	0.376623	0.78893	0.066614
466	N	0.370315	0.752113	0.302663
467	C	0.383517	0.606261	0.038155
468	C	0.359695	0.599618	0.003601
469	N	0.370282	0.62229	0.302731
470	H	0.376626	0.591836	0.066712
471	C	0.304793	0.715726	0.330515
472	C	0.324468	0.749847	0.674889
473	C	0.307169	0.76558	0.691959
474	H	0.321424	0.790506	0.697441
475	H	0.317069	0.703453	0.321077
476	H	0.29469	0.817252	0.364131
477	C	0.307125	0.545706	0.358629
478	C	0.324446	0.578784	0.341719
479	C	0.304798	0.593283	0.330842
480	H	0.321375	0.535023	0.364054
481	H	0.317098	0.617854	0.321482
482	H	0.294667	0.981572	0.6974
483	C	0.359723	0.76421	0.336853
484	C	0.383556	0.781447	0.371389
485	H	0.376623	0.78893	0.399948
486	N	0.370315	0.752113	0.635997
487	C	0.383517	0.606261	0.371487
488	C	0.359695	0.599618	0.336935
489	N	0.370282	0.62229	0.636065
490	H	0.376626	0.591836	0.400046
491	C	0.304793	0.715726	0.663847
492	C	0.324468	0.749847	0.008223
493	C	0.307169	0.76558	0.02529
494	H	0.321424	0.790506	0.030775
495	H	0.317069	0.703453	0.654411
496	H	0.29469	0.817252	0.697465
497	C	0.307125	0.545706	0.691962
498	C	0.324446	0.578784	0.675055
499	C	0.304798	0.593283	0.664176
500	H	0.321375	0.535023	0.697387
501	H	0.317098	0.617854	0.654815
502	H	0.294667	0.981572	0.030733
503	C	0.359723	0.76421	0.670187
504	C	0.383556	0.781447	0.704722
505	H	0.376623	0.78893	0.733281
506	N	0.370315	0.752113	0.96933
507	C	0.383517	0.606261	0.70482
508	C	0.359695	0.599618	0.670268
509	N	0.370282	0.62229	0.969398
510	H	0.376626	0.591836	0.733379
511	C	0.494227	0.249144	0.028265
512	C	0.474919	0.265585	0.025235
513	C	0.441828	0.249834	0.008393
514	C	0.427306	0.215681	0.99755
515	C	0.44184	0.196057	0.341715
516	C	0.474931	0.213392	0.358571
517	H	0.485594	0.290506	0.03077
518	H	0.485645	0.19916	0.363921
519	H	0.402716	0.203368	0.988297
520	C	0.414278	0.281382	0.03813
521	C	0.420976	0.264232	0.003591
522	N	0.398328	0.252126	0.302692
523	H	0.428699	0.28895	0.066689
524	C	0.421049	0.160804	0.003554
525	C	0.414326	0.136956	0.038114
526	H	0.428709	0.143862	0.066705
527	N	0.398326	0.150259	0.30273
528	C	0.494227	0.249144	0.361597
529	C	0.474919	0.265585	0.358568
530	C	0.441828	0.249834	0.341726
531	C	0.427306	0.215681	0.330881
532	C	0.44184	0.196057	0.675049
533	C	0.474931	0.213392	0.691905
534	H	0.485594	0.290506	0.364104
535	H	0.485645	0.19916	0.697255
536	H	0.402716	0.203368	0.321629
537	C	0.414278	0.281382	0.371463
538	C	0.420976	0.264232	0.336926
539	N	0.398328	0.252126	0.636027
540	H	0.428699	0.28895	0.400022
541	C	0.421049	0.160804	0.336888
542	C	0.414326	0.136956	0.371446
543	H	0.428709	0.143862	0.400039
544	N	0.398326	0.150259	0.636065
545	C	0.494227	0.249144	0.694934
546	C	0.474919	0.265585	0.691901
547	C	0.441828	0.249834	0.675059
548	C	0.427306	0.215681	0.664217
549	C	0.44184	0.196057	0.008381
550	C	0.474931	0.213392	0.025237
551	H	0.485594	0.290506	0.697438
552	H	0.485645	0.19916	0.030589
553	H	0.402716	0.203368	0.654964
554	C	0.414278	0.281382	0.704797
555	C	0.420976	0.264232	0.670258
556	N	0.398328	0.252126	0.96936
557	H	0.428699	0.28895	0.733355
558	C	0.421049	0.160804	0.67022
559	C	0.414326	0.136956	0.70478
560	H	0.428709	0.143862	0.733372
561	N	0.398326	0.150259	0.969398
562	C	0.494226	0.749142	0.028265
563	C	0.474917	0.765582	0.025235
564	C	0.441827	0.749834	0.008393
565	C	0.427304	0.715681	0.99755
566	C	0.441841	0.696057	0.341715
567	C	0.474931	0.713392	0.358571
568	H	0.485593	0.790506	0.03077
569	H	0.485644	0.699158	0.363921
570	H	0.402715	0.703368	0.988297
571	C	0.414277	0.781382	0.03813
572	C	0.420976	0.764232	0.003591
573	N	0.398326	0.752123	0.302692
574	H	0.428698	0.78895	0.066689
575	C	0.421048	0.660803	0.003554
576	C	0.414324	0.636955	0.038114
577	H	0.428709	0.643862	0.066705
578	N	0.398326	0.650259	0.30273
579	C	0.494226	0.749142	0.361597
580	C	0.474917	0.765582	0.358568
581	C	0.441827	0.749834	0.341726
582	C	0.427304	0.715681	0.330881
583	C	0.441841	0.696057	0.675049
584	C	0.474931	0.713392	0.691905
585	H	0.485593	0.790506	0.364104
586	H	0.485644	0.699158	0.697255
587	H	0.402715	0.703368	0.321629
588	C	0.414277	0.781382	0.371463
589	C	0.420976	0.764232	0.336926
590	N	0.398326	0.752123	0.636027
591	H	0.428698	0.78895	0.400022
592	C	0.421048	0.660803	0.336888
593	C	0.414324	0.636955	0.371446
594	H	0.428709	0.643862	0.400039
595	N	0.398326	0.650259	0.636065
596	C	0.494226	0.749142	0.694934
597	C	0.474917	0.765582	0.691901
598	C	0.441827	0.749834	0.675059
599	C	0.427304	0.715681	0.664217
600	C	0.441841	0.696057	0.008381
601	C	0.474931	0.713392	0.025237
602	H	0.485593	0.790506	0.697438
603	H	0.485644	0.699158	0.030589
604	H	0.402715	0.703368	0.654964
605	C	0.414277	0.781382	0.704797
606	C	0.420976	0.764232	0.670258
607	N	0.398326	0.752123	0.96936
608	H	0.428698	0.78895	0.733355
609	C	0.421048	0.660803	0.67022
610	C	0.414324	0.636955	0.70478
611	H	0.428709	0.643862	0.733372
612	N	0.398326	0.650259	0.969398
613	C	0.994226	0.249144	0.028265
614	C	0.974918	0.265585	0.025235
615	C	0.941827	0.249834	0.008393
616	C	0.927305	0.215681	0.99755
617	C	0.941841	0.196057	0.341715
618	C	0.974933	0.213392	0.358571
619	H	0.985593	0.290506	0.03077
620	H	0.985644	0.19916	0.363921
621	H	0.902714	0.203368	0.988297
622	C	0.53048	0.267271	0.028279
623	C	0.549771	0.303018	0.358575
624	C	0.582829	0.32035	0.34161
625	C	0.59735	0.300727	0.997374
626	C	0.582861	0.266583	0.008285
627	C	0.549796	0.250838	0.025236
628	H	0.539067	0.317252	0.363986
629	H	0.621923	0.31301	0.988039
630	H	0.539122	0.225908	0.030708
631	C	0.77142	0.249154	0.028293
632	C	0.754957	0.213406	0.025265
633	C	0.770659	0.196092	0.008148
634	C	0.804792	0.215726	0.997181
635	C	0.824467	0.249847	0.341556
636	C	0.80717	0.26558	0.358622
637	H	0.730029	0.199171	0.030741
638	H	0.821424	0.290506	0.364108
639	H	0.81707	0.203452	0.987745
640	C	0.753302	0.267288	0.028307
641	C	0.717547	0.250853	0.358629
642	C	0.700234	0.266598	0.341651
643	C	0.719889	0.300764	0.997513
644	C	0.75404	0.320383	0.008344
645	C	0.769769	0.303036	0.02523
646	H	0.703302	0.225918	0.364033
647	H	0.707592	0.313037	0.988151
648	H	0.794689	0.317252	0.030799
649	C	0.771371	0.026382	0.028274
650	C	0.807125	0.045707	0.025296
651	C	0.824446	0.078783	0.008387
652	C	0.804798	0.093285	0.997509
653	C	0.770645	0.078749	0.341665
654	C	0.754903	0.045661	0.358504
655	H	0.821375	0.035024	0.030721
656	H	0.72998	0.034959	0.364047
657	H	0.817099	0.117855	0.988148
658	C	0.75326	0.490128	0.028294
659	C	0.769737	0.470851	0.358578
660	C	0.753982	0.437719	0.341892
661	C	0.719804	0.423134	0.997872
662	C	0.70017	0.437684	0.008519
663	C	0.717512	0.470816	0.025207
664	H	0.794667	0.481572	0.364067
665	H	0.707505	0.398541	0.988598
666	H	0.703277	0.481512	0.030674
667	C	0.664984	0.252221	0.003557
668	C	0.641124	0.234977	0.038057
669	C	0.6104	0.235037	0.038075
670	C	0.603732	0.252203	0.003527
671	N	0.626414	0.264319	0.302662
672	H	0.595954	0.227458	0.066611
673	H	0.648034	0.227484	0.066631
674	N	0.654428	0.264334	0.30268
675	C	0.768467	0.416964	0.003672
676	C	0.785574	0.410214	0.038234
677	C	0.785515	0.379433	0.038215
678	C	0.768474	0.355627	0.003581
679	N	0.756339	0.366249	0.3028
680	H	0.793039	0.372538	0.066777
681	H	0.793006	0.424559	0.066861
682	N	0.756327	0.394247	0.302846
683	C	0.60364	0.355605	0.003533
684	C	0.610289	0.379431	0.038094
685	C	0.64107	0.410149	0.038184
686	C	0.664927	0.416914	0.003635
687	N	0.654403	0.394209	0.302801
688	H	0.647919	0.424549	0.066764
689	H	0.59588	0.372491	0.066663
690	N	0.626402	0.366199	0.302756
691	C	0.859723	0.26421	0.00352
692	C	0.883556	0.281447	0.038054
693	C	0.914277	0.281382	0.03813
694	C	0.920978	0.264232	0.003591
695	N	0.898327	0.252126	0.302692
696	H	0.928698	0.28895	0.066689
697	H	0.876625	0.288932	0.066614
698	N	0.870316	0.252114	0.302663
699	C	0.756166	0.09952	0.003482
700	C	0.739046	0.106253	0.038036
701	C	0.739125	0.137045	0.038028
702	C	0.756271	0.160839	0.003432
703	N	0.768345	0.150231	0.30257
704	H	0.731598	0.143951	0.066577
705	H	0.731592	0.091894	0.06665
706	N	0.768308	0.122207	0.302617
707	C	0.92105	0.160804	0.003554
708	C	0.914325	0.136956	0.038114
709	C	0.883517	0.106261	0.038155
710	C	0.859695	0.099619	0.003601
711	N	0.870282	0.12229	0.302731
712	H	0.876626	0.091836	0.066712
713	H	0.928708	0.143862	0.066705
714	N	0.898325	0.150259	0.30273
715	C	0.994226	0.249144	0.361597
716	C	0.974918	0.265585	0.358568
717	C	0.941827	0.249834	0.341726
718	C	0.927305	0.215681	0.330881
719	C	0.941841	0.196057	0.675049
720	C	0.974933	0.213392	0.691905
721	H	0.985593	0.290506	0.364104
722	H	0.985644	0.19916	0.697255
723	H	0.902714	0.203368	0.321629
724	C	0.53048	0.267271	0.361614
725	C	0.549771	0.303018	0.691908
726	C	0.582829	0.32035	0.674944
727	C	0.59735	0.300727	0.330705
728	C	0.582861	0.266583	0.341621
729	C	0.549796	0.250838	0.358568
730	H	0.539067	0.317252	0.697319
731	H	0.621923	0.31301	0.321374
732	H	0.539122	0.225908	0.364043
733	C	0.77142	0.249154	0.361628
734	C	0.754957	0.213406	0.358599
735	C	0.770659	0.196092	0.341478
736	C	0.804792	0.215726	0.330515
737	C	0.824467	0.249847	0.674889
738	C	0.80717	0.26558	0.691959
739	H	0.730029	0.199171	0.364074
740	H	0.821424	0.290506	0.697441
741	H	0.81707	0.203452	0.321077
742	C	0.753302	0.267288	0.361641
743	C	0.717547	0.250853	0.691962
744	C	0.700234	0.266598	0.674984
745	C	0.719889	0.300764	0.330847
746	C	0.75404	0.320383	0.341678
747	C	0.769769	0.303036	0.358565
748	H	0.703302	0.225918	0.697366
749	H	0.707592	0.313037	0.321483
750	H	0.794689	0.317252	0.364131
751	C	0.771371	0.026382	0.361607
752	C	0.807125	0.045707	0.358629
753	C	0.824446	0.078783	0.341719
754	C	0.804798	0.093285	0.330842
755	C	0.770645	0.078749	0.674998
756	C	0.754903	0.045661	0.691837
757	H	0.821375	0.035024	0.364054
758	H	0.72998	0.034959	0.69738
759	H	0.817099	0.117855	0.321482
760	C	0.75326	0.490128	0.361628
761	C	0.769737	0.470851	0.691911
762	C	0.753982	0.437719	0.675225
763	C	0.719804	0.423134	0.331206
764	C	0.70017	0.437684	0.341851
765	C	0.717512	0.470816	0.358541
766	H	0.794667	0.481572	0.6974
767	H	0.707505	0.398541	0.32193
768	H	0.703277	0.481512	0.364009
769	C	0.664984	0.252221	0.33689
770	C	0.641124	0.234977	0.371389
771	C	0.6104	0.235037	0.371409
772	C	0.603732	0.252203	0.336858
773	N	0.626414	0.264319	0.635997
774	H	0.595954	0.227458	0.399944
775	H	0.648034	0.227484	0.399965
776	N	0.654428	0.264334	0.636014
777	C	0.768467	0.416964	0.337006
778	C	0.785574	0.410214	0.371568
779	C	0.785515	0.379433	0.371548
780	C	0.768474	0.355627	0.336915
781	N	0.756339	0.366249	0.636136
782	H	0.793039	0.372538	0.40011
783	H	0.793006	0.424559	0.400195
784	N	0.756327	0.394247	0.63618
785	C	0.60364	0.355605	0.336866
786	C	0.610289	0.379431	0.371426
787	C	0.64107	0.410149	0.371518
788	C	0.664927	0.416914	0.336969
789	N	0.654403	0.394209	0.636136
790	H	0.647919	0.424549	0.400097
791	H	0.59588	0.372491	0.399995
792	N	0.626402	0.366199	0.636088
793	C	0.859723	0.26421	0.336853
794	C	0.883556	0.281447	0.371389
795	C	0.914277	0.281382	0.371463
796	C	0.920978	0.264232	0.336926
797	N	0.898327	0.252126	0.636027
798	H	0.928698	0.28895	0.400022
799	H	0.876625	0.288932	0.399948
800	N	0.870316	0.252114	0.635997
801	C	0.756166	0.09952	0.336817
802	C	0.739046	0.106253	0.371369
803	C	0.739125	0.137045	0.371362
804	C	0.756271	0.160839	0.336766
805	N	0.768345	0.150231	0.635905
806	H	0.731598	0.143951	0.39991
807	H	0.731592	0.091894	0.399985
808	N	0.768308	0.122207	0.635949
809	C	0.92105	0.160804	0.336888
810	C	0.914325	0.136956	0.371446
811	C	0.883517	0.106261	0.371487
812	C	0.859695	0.099619	0.336935
813	N	0.870282	0.12229	0.636065
814	H	0.876626	0.091836	0.400046
815	H	0.928708	0.143862	0.400039
816	N	0.898325	0.150259	0.636065
817	C	0.994226	0.249144	0.694934
818	C	0.974918	0.265585	0.691901
819	C	0.941827	0.249834	0.675059
820	C	0.927305	0.215681	0.664217
821	C	0.941841	0.196057	0.008381
822	C	0.974933	0.213392	0.025237
823	H	0.985593	0.290506	0.697438
824	H	0.985644	0.19916	0.030589
825	H	0.902714	0.203368	0.654964
826	C	0.53048	0.267271	0.694947
827	C	0.549771	0.303018	0.025241
828	C	0.582829	0.32035	0.008276
829	C	0.59735	0.300727	0.664037
830	C	0.582861	0.266583	0.674954
831	C	0.549796	0.250838	0.691901
832	H	0.539067	0.317252	0.030653
833	H	0.621923	0.31301	0.654706
834	H	0.539122	0.225908	0.697377
835	C	0.77142	0.249154	0.694961
836	C	0.754957	0.213406	0.691932
837	C	0.770659	0.196092	0.674811
838	C	0.804792	0.215726	0.663847
839	C	0.824467	0.249847	0.008223
840	C	0.80717	0.26558	0.02529
841	H	0.730029	0.199171	0.697407
842	H	0.821424	0.290506	0.030775
843	H	0.81707	0.203452	0.654411
844	C	0.753302	0.267288	0.694974
845	C	0.717547	0.250853	0.025294
846	C	0.700234	0.266598	0.008316
847	C	0.719889	0.300764	0.664179
848	C	0.75404	0.320383	0.675011
849	C	0.769769	0.303036	0.691898
850	H	0.703302	0.225918	0.030701
851	H	0.707592	0.313037	0.654818
852	H	0.794689	0.317252	0.697465
853	C	0.771371	0.026382	0.69494
854	C	0.807125	0.045707	0.691962
855	C	0.824446	0.078783	0.675055
856	C	0.804798	0.093285	0.664176
857	C	0.770645	0.078749	0.00833
858	C	0.754903	0.045661	0.02517
859	H	0.821375	0.035024	0.697387
860	H	0.72998	0.034959	0.030713
861	H	0.817099	0.117855	0.654815
862	C	0.75326	0.490128	0.694961
863	C	0.769737	0.470851	0.025245
864	C	0.753982	0.437719	0.008557
865	C	0.719804	0.423134	0.664539
866	C	0.70017	0.437684	0.675184
867	C	0.717512	0.470816	0.691874
868	H	0.794667	0.481572	0.030733
869	H	0.707505	0.398541	0.655265
870	H	0.703277	0.481512	0.697343
871	C	0.664984	0.252221	0.670224
872	C	0.641124	0.234977	0.704725
873	C	0.6104	0.235037	0.704742
874	C	0.603732	0.252203	0.67019
875	N	0.626414	0.264319	0.96933
876	H	0.595954	0.227458	0.733277
877	H	0.648034	0.227484	0.733298
878	N	0.654428	0.264334	0.969347
879	C	0.768467	0.416964	0.670339
880	C	0.785574	0.410214	0.704902
881	C	0.785515	0.379433	0.704881
882	C	0.768474	0.355627	0.670248
883	N	0.756339	0.366249	0.969469
884	H	0.793039	0.372538	0.733443
885	H	0.793006	0.424559	0.733528
886	N	0.756327	0.394247	0.969513
887	C	0.60364	0.355605	0.6702
888	C	0.610289	0.379431	0.704763
889	C	0.64107	0.410149	0.704851
890	C	0.664927	0.416914	0.670302
891	N	0.654403	0.394209	0.969469
892	H	0.647919	0.424549	0.73343
893	H	0.59588	0.372491	0.733328
894	N	0.626402	0.366199	0.969425
895	C	0.859723	0.26421	0.670187
896	C	0.883556	0.281447	0.704722
897	C	0.914277	0.281382	0.704797
898	C	0.920978	0.264232	0.670258
899	N	0.898327	0.252126	0.96936
900	H	0.928698	0.28895	0.733355
901	H	0.876625	0.288932	0.733281
902	N	0.870316	0.252114	0.96933
903	C	0.756166	0.09952	0.670149
904	C	0.739046	0.106253	0.704702
905	C	0.739125	0.137045	0.704695
906	C	0.756271	0.160839	0.670099
907	N	0.768345	0.150231	0.969238
908	H	0.731598	0.143951	0.733243
909	H	0.731592	0.091894	0.733318
910	N	0.768308	0.122207	0.969282
911	C	0.92105	0.160804	0.67022
912	C	0.914325	0.136956	0.70478
913	C	0.883517	0.106261	0.704824
914	C	0.859695	0.099619	0.670268
915	N	0.870282	0.12229	0.969398
916	H	0.876626	0.091836	0.733379
917	H	0.928708	0.143862	0.733372
918	N	0.898325	0.150259	0.969398
919	C	0.994226	0.749142	0.028265
920	C	0.974918	0.765582	0.025235
921	C	0.941828	0.749834	0.008393
922	C	0.927303	0.715681	0.99755
923	C	0.94184	0.696057	0.341715
924	C	0.974931	0.713392	0.358571
925	H	0.985594	0.790506	0.03077
926	H	0.985644	0.699158	0.363921
927	H	0.902716	0.703368	0.988297
928	C	0.530477	0.767268	0.028279
929	C	0.549771	0.803018	0.358575
930	C	0.582829	0.82035	0.34161
931	C	0.59735	0.800727	0.997374
932	C	0.582861	0.766583	0.008285
933	C	0.549796	0.750838	0.025236
934	H	0.539067	0.817252	0.363986
935	H	0.621922	0.81301	0.988039
936	H	0.539121	0.725909	0.030708
937	C	0.771419	0.749154	0.028293
938	C	0.754958	0.713407	0.025265
939	C	0.770658	0.696092	0.008148
940	C	0.804793	0.715726	0.997181
941	C	0.824468	0.749847	0.341556
942	C	0.807169	0.76558	0.358622
943	H	0.730028	0.699171	0.030741
944	H	0.821422	0.790506	0.364108
945	H	0.817069	0.703453	0.987745
946	C	0.753301	0.767288	0.028307
947	C	0.717548	0.750853	0.358629
948	C	0.700233	0.766598	0.341651
949	C	0.719886	0.800762	0.997513
950	C	0.75404	0.82038	0.008344
951	C	0.769768	0.803036	0.02523
952	H	0.703301	0.725919	0.364033
953	H	0.70759	0.813037	0.988151
954	H	0.79469	0.817252	0.030799
955	C	0.771371	0.526382	0.028274
956	C	0.807125	0.545706	0.025296
957	C	0.824445	0.578784	0.008387
958	C	0.804796	0.593283	0.997509
959	C	0.770644	0.578749	0.341665
960	C	0.754903	0.545661	0.358504
961	H	0.821376	0.535023	0.030721
962	H	0.729978	0.534958	0.364047
963	H	0.817097	0.617854	0.988148
964	C	0.753261	0.990128	0.028294
965	C	0.769736	0.970851	0.358578
966	C	0.753981	0.937719	0.341892
967	C	0.719802	0.923132	0.997872
968	C	0.700171	0.937684	0.008519
969	C	0.717511	0.970816	0.025207
970	H	0.794666	0.981572	0.364067
971	H	0.707506	0.898541	0.988598
972	H	0.703277	0.981512	0.030674
973	C	0.664983	0.752221	0.003557
974	C	0.641124	0.734976	0.038057
975	C	0.610399	0.735036	0.038075
976	C	0.603733	0.752203	0.003527
977	N	0.626412	0.764319	0.302662
978	H	0.595953	0.727458	0.066611
979	H	0.648032	0.727483	0.066631
980	N	0.654427	0.764334	0.30268
981	C	0.768468	0.916964	0.003672
982	C	0.785572	0.910211	0.038234
983	C	0.785514	0.879433	0.038215
984	C	0.768473	0.855627	0.003581
985	N	0.75634	0.866249	0.3028
986	H	0.793038	0.872538	0.066777
987	H	0.793005	0.924559	0.066861
988	N	0.756326	0.894247	0.302846
989	C	0.603641	0.855605	0.003533
990	C	0.610287	0.879428	0.038094
991	C	0.641069	0.910147	0.038184
992	C	0.664927	0.916914	0.003635
993	N	0.654402	0.894207	0.302801
994	H	0.647916	0.924547	0.066764
995	H	0.595879	0.872491	0.066663
996	N	0.626402	0.866199	0.302756
997	C	0.859724	0.76421	0.00352
998	C	0.883555	0.781447	0.038054
999	C	0.914276	0.781382	0.03813
1000	C	0.920976	0.764232	0.003591
1001	N	0.898325	0.752123	0.302692
1002	H	0.928697	0.78895	0.066689
1003	H	0.876623	0.78893	0.066614
1004	N	0.870314	0.752113	0.302663
1005	C	0.756168	0.599521	0.003482
1006	C	0.739045	0.606254	0.038036
1007	C	0.739126	0.637044	0.038028
1008	C	0.756271	0.660838	0.003432
1009	N	0.768344	0.650231	0.30257
1010	H	0.731599	0.643952	0.066577
1011	H	0.731591	0.591893	0.06665
1012	N	0.768306	0.622206	0.302617
1013	C	0.921048	0.660803	0.003554
1014	C	0.914323	0.636955	0.038114
1015	C	0.883518	0.606261	0.038155
1016	C	0.859696	0.599618	0.003601
1017	N	0.870282	0.62229	0.302731
1018	H	0.876625	0.591836	0.066712
1019	H	0.92871	0.643862	0.066705
1020	N	0.898324	0.650259	0.30273
1021	C	0.994226	0.749142	0.361597
1022	C	0.974918	0.765582	0.358568
1023	C	0.941828	0.749834	0.341726
1024	C	0.927303	0.715681	0.330881
1025	C	0.94184	0.696057	0.675049
1026	C	0.974931	0.713392	0.691905
1027	H	0.985594	0.790506	0.364104
1028	H	0.985644	0.699158	0.697255
1029	H	0.902716	0.703368	0.321629
1030	C	0.530477	0.767268	0.361614
1031	C	0.549771	0.803018	0.691908
1032	C	0.582829	0.82035	0.674944
1033	C	0.59735	0.800727	0.330705
1034	C	0.582861	0.766583	0.341621
1035	C	0.549796	0.750838	0.358568
1036	H	0.539067	0.817252	0.697319
1037	H	0.621922	0.81301	0.321374
1038	H	0.539121	0.725909	0.364043
1039	C	0.771419	0.749154	0.361628
1040	C	0.754958	0.713407	0.358599
1041	C	0.770658	0.696092	0.341478
1042	C	0.804793	0.715726	0.330515
1043	C	0.824468	0.749847	0.674889
1044	C	0.807169	0.76558	0.691959
1045	H	0.730028	0.699171	0.364074
1046	H	0.821422	0.790506	0.697441
1047	H	0.817069	0.703453	0.321077
1048	C	0.753301	0.767288	0.361641
1049	C	0.717548	0.750853	0.691962
1050	C	0.700233	0.766598	0.674984
1051	C	0.719886	0.800762	0.330847
1052	C	0.75404	0.82038	0.341678
1053	C	0.769768	0.803036	0.358565
1054	H	0.703301	0.725919	0.697366
1055	H	0.70759	0.813037	0.321483
1056	H	0.79469	0.817252	0.364131
1057	C	0.771371	0.526382	0.361607
1058	C	0.807125	0.545706	0.358629
1059	C	0.824445	0.578784	0.341719
1060	C	0.804796	0.593283	0.330842
1061	C	0.770644	0.578749	0.674998
1062	C	0.754903	0.545661	0.691837
1063	H	0.821376	0.535023	0.364054
1064	H	0.729978	0.534958	0.69738
1065	H	0.817097	0.617854	0.321482
1066	C	0.753261	0.990128	0.361628
1067	C	0.769736	0.970851	0.691911
1068	C	0.753981	0.937719	0.675225
1069	C	0.719802	0.923132	0.331206
1070	C	0.700171	0.937684	0.341851
1071	C	0.717511	0.970816	0.358541
1072	H	0.794666	0.981572	0.6974
1073	H	0.707506	0.898541	0.32193
1074	H	0.703277	0.981512	0.364009
1075	C	0.664983	0.752221	0.33689
1076	C	0.641124	0.734976	0.371389
1077	C	0.610399	0.735036	0.371409
1078	C	0.603733	0.752203	0.336858
1079	N	0.626412	0.764319	0.635997
1080	H	0.595953	0.727458	0.399944
1081	H	0.648032	0.727483	0.399965
1082	N	0.654427	0.764334	0.636014
1083	C	0.768468	0.916964	0.337006
1084	C	0.785572	0.910211	0.371568
1085	C	0.785514	0.879433	0.371548
1086	C	0.768473	0.855627	0.336915
1087	N	0.75634	0.866249	0.636136
1088	H	0.793038	0.872538	0.40011
1089	H	0.793005	0.924559	0.400195
1090	N	0.756326	0.894247	0.63618
1091	C	0.603641	0.855605	0.336866
1092	C	0.610287	0.879428	0.371426
1093	C	0.641069	0.910147	0.371518
1094	C	0.664927	0.916914	0.336969
1095	N	0.654402	0.894207	0.636136
1096	H	0.647916	0.924547	0.400097
1097	H	0.595879	0.872491	0.399995
1098	N	0.626402	0.866199	0.636088
1099	C	0.859724	0.76421	0.336853
1100	C	0.883555	0.781447	0.371389
1101	C	0.914276	0.781382	0.371463
1102	C	0.920976	0.764232	0.336926
1103	N	0.898325	0.752123	0.636027
1104	H	0.928697	0.78895	0.400022
1105	H	0.876623	0.78893	0.399948
1106	N	0.870314	0.752113	0.635997
1107	C	0.756168	0.599521	0.336817
1108	C	0.739045	0.606254	0.371369
1109	C	0.739126	0.637044	0.371362
1110	C	0.756271	0.660838	0.336766
1111	N	0.768344	0.650231	0.635905
1112	H	0.731599	0.643952	0.39991
1113	H	0.731591	0.591893	0.399985
1114	N	0.768306	0.622206	0.635949
1115	C	0.921048	0.660803	0.336888
1116	C	0.914323	0.636955	0.371446
1117	C	0.883518	0.606261	0.371487
1118	C	0.859696	0.599618	0.336935
1119	N	0.870282	0.62229	0.636065
1120	H	0.876625	0.591836	0.400046
1121	H	0.92871	0.643862	0.400039
1122	N	0.898324	0.650259	0.636065
1123	C	0.994226	0.749142	0.694934
1124	C	0.974918	0.765582	0.691901
1125	C	0.941828	0.749834	0.675059
1126	C	0.927303	0.715681	0.664217
1127	C	0.94184	0.696057	0.008381
1128	C	0.974931	0.713392	0.025237
1129	H	0.985594	0.790506	0.697438
1130	H	0.985644	0.699158	0.030589
1131	H	0.902716	0.703368	0.654964
1132	C	0.530477	0.767268	0.694947
1133	C	0.549771	0.803018	0.025241
1134	C	0.582829	0.82035	0.008276
1135	C	0.59735	0.800727	0.664037
1136	C	0.582861	0.766583	0.674954
1137	C	0.549796	0.750838	0.691901
1138	H	0.539067	0.817252	0.030653
1139	H	0.621922	0.81301	0.654706
1140	H	0.539121	0.725909	0.697377
1141	C	0.771419	0.749154	0.694961
1142	C	0.754958	0.713407	0.691932
1143	C	0.770658	0.696092	0.674811
1144	C	0.804793	0.715726	0.663847
1145	C	0.824468	0.749847	0.008223
1146	C	0.807169	0.76558	0.02529
1147	H	0.730028	0.699171	0.697407
1148	H	0.821422	0.790506	0.030775
1149	H	0.817069	0.703453	0.654411
1150	C	0.753301	0.767288	0.694974
1151	C	0.717548	0.750853	0.025294
1152	C	0.700233	0.766598	0.008316
1153	C	0.719886	0.800762	0.664179
1154	C	0.75404	0.82038	0.675011
1155	C	0.769768	0.803036	0.691898
1156	H	0.703301	0.725919	0.030701
1157	H	0.70759	0.813037	0.654818
1158	H	0.79469	0.817252	0.697465
1159	C	0.771371	0.526382	0.69494
1160	C	0.807125	0.545706	0.691962
1161	C	0.824445	0.578784	0.675055
1162	C	0.804796	0.593283	0.664176
1163	C	0.770644	0.578749	0.00833
1164	C	0.754903	0.545661	0.02517
1165	H	0.821376	0.535023	0.697387
1166	H	0.729978	0.534958	0.030713
1167	H	0.817097	0.617854	0.654815
1168	C	0.753261	0.990128	0.694961
1169	C	0.769736	0.970851	0.025245
1170	C	0.753981	0.937719	0.008557
1171	C	0.719802	0.923132	0.664539
1172	C	0.700171	0.937684	0.675184
1173	C	0.717511	0.970816	0.691874
1174	H	0.794666	0.981572	0.030733
1175	H	0.707506	0.898541	0.655265
1176	H	0.703277	0.981512	0.697343
1177	C	0.664983	0.752221	0.670224
1178	C	0.641124	0.734976	0.704725
1179	C	0.610399	0.735036	0.704742
1180	C	0.603733	0.752203	0.67019
1181	N	0.626412	0.764319	0.96933
1182	H	0.595953	0.727458	0.733277
1183	H	0.648032	0.727483	0.733298
1184	N	0.654427	0.764334	0.969347
1185	C	0.768468	0.916964	0.670339
1186	C	0.785572	0.910211	0.704902
1187	C	0.785514	0.879433	0.704881
1188	C	0.768473	0.855627	0.670248
1189	N	0.75634	0.866249	0.969469
1190	H	0.793038	0.872538	0.733443
1191	H	0.793005	0.924559	0.733528
1192	N	0.756326	0.894247	0.969513
1193	C	0.603641	0.855605	0.6702
1194	C	0.610287	0.879428	0.704763
1195	C	0.641069	0.910147	0.704851
1196	C	0.664927	0.916914	0.670302
1197	N	0.654402	0.894207	0.969469
1198	H	0.647916	0.924547	0.73343
1199	H	0.595879	0.872491	0.733328
1200	N	0.626402	0.866199	0.969425
1201	C	0.859724	0.76421	0.670187
1202	C	0.883555	0.781447	0.704722
1203	C	0.914276	0.781382	0.704797
1204	C	0.920976	0.764232	0.670258
1205	N	0.898325	0.752123	0.96936
1206	H	0.928697	0.78895	0.733355
1207	H	0.876623	0.78893	0.733281
1208	N	0.870314	0.752113	0.96933
1209	C	0.756168	0.599521	0.670149
1210	C	0.739045	0.606254	0.704702
1211	C	0.739126	0.637044	0.704695
1212	C	0.756271	0.660838	0.670099
1213	N	0.768344	0.650231	0.969238
1214	H	0.731599	0.643952	0.733243
1215	H	0.731591	0.591893	0.733318
1216	N	0.768306	0.622206	0.969282
1217	C	0.921048	0.660803	0.67022
1218	C	0.914323	0.636955	0.70478
1219	C	0.883518	0.606261	0.70482
1220	C	0.859696	0.599618	0.670268
1221	N	0.870282	0.62229	0.969398
1222	H	0.876625	0.591836	0.733379
1223	H	0.92871	0.643862	0.733372
1224	N	0.898324	0.650259	0.969398
