data_C504H432N72_2018-02-15_10:45:45
#******************************************
#
# CIF file created by Zeo++
# Zeo++ is an open source package to
# analyze microporous materials
#
#*******************************************

_cell_length_a		45.8712   
_cell_length_b		45.8711   
_cell_length_c		29.2436   
_cell_angle_alpha		90   
_cell_angle_beta		90   
_cell_angle_gamma		120   

_symmetry_space_group_name_H-M		'P1'
_symmetry_Int_Tables_number		1
_symmetry_cell_setting		Monoclinic

loop_
_symmetry_equiv_pos_as_xyz
'+x,+y,+z'

loop_
_atom_site_label
_atom_site_type_symbol
_atom_site_fract_x
_atom_site_fract_y
_atom_site_fract_z
1	C	0.210784	0.335726	0.013049
2	C	0.220423	0.370391	0.013031
3	C	0.196606	0.381525	0.013048
4	C	0.16194	0.356498	0.01303
5	C	0.150806	0.321549	0.013046
6	C	0.175832	0.311907	0.013028
7	H	0.144289	0.363937	0.013178
8	H	0.168394	0.286818	0.013181
9	H	0.245512	0.388042	0.013179
10	C	0.206176	0.416173	0.013401
11	C	0.116158	0.296469	0.013402
12	C	0.235861	0.326155	0.013403
13	H	0.260473	0.344906	0.014247
14	H	0.110298	0.271858	0.014244
15	H	0.187425	0.422033	0.014245
16	H	0.278324	0.180959	0.012707
17	C	0.289628	0.246841	0.014251
18	C	0.284678	0.297801	0.016674
19	C	0.249169	0.279024	0.346035
20	C	0.233824	0.243395	0.342748
21	C	0.254118	0.228063	0.343617
22	H	0.242538	0.202456	0.340953
23	C	0.196822	0.220735	0.337854
24	H	0.182764	0.234106	0.337297
25	H	0.187376	0.20301	0.366371
26	H	0.191496	0.206548	0.305992
27	N	0.22962	0.293851	0.34545
28	C	0.285489	0.049253	0.014253
29	C	0.249861	0.028969	0.017541
30	C	0.234529	0.493342	0.016676
31	C	0.253308	0.476613	0.346031
32	C	0.288936	0.496897	0.342745
33	H	0.208922	0.479316	0.019335
34	C	0.227201	0.043311	0.022436
35	H	0.240572	0.07074	0.022992
36	H	0.213015	0.034451	0.054299
37	H	0.209475	0.035031	0.993923
38	N	0.238478	0.442234	0.345446
39	C	0.038988	0.247652	0.016673
40	C	0.05572	0.283163	0.346031
41	C	0.035435	0.298506	0.342738
42	H	0.053015	0.236073	0.019345
43	C	0.049778	0.335509	0.337842
44	H	0.077206	0.349566	0.337282
45	H	0.0415	0.344954	0.36636
46	H	0.040914	0.340833	0.305982
47	N	0.090095	0.302709	0.345446
48	C	0.210784	0.335726	0.346383
49	C	0.220423	0.370391	0.346363
50	C	0.196606	0.381525	0.34638
51	C	0.16194	0.356498	0.346363
52	C	0.150806	0.321549	0.34638
53	C	0.175832	0.311907	0.346363
54	H	0.144289	0.363937	0.346513
55	H	0.168394	0.286818	0.346513
56	H	0.245512	0.388042	0.346513
57	C	0.206176	0.416173	0.346736
58	C	0.116158	0.296469	0.346736
59	C	0.235861	0.326155	0.346736
60	H	0.260473	0.344906	0.34758
61	H	0.110298	0.271858	0.347577
62	H	0.187425	0.422033	0.347577
63	H	0.278324	0.180959	0.346041
64	C	0.289628	0.246841	0.347584
65	C	0.284678	0.297801	0.350008
66	C	0.249169	0.279024	0.679369
67	C	0.233824	0.243395	0.676083
68	C	0.254118	0.228063	0.676948
69	H	0.242538	0.202456	0.674287
70	C	0.196822	0.220735	0.671186
71	H	0.182764	0.234106	0.670632
72	H	0.187376	0.20301	0.699705
73	H	0.191496	0.206548	0.639326
74	N	0.22962	0.293851	0.678784
75	C	0.285489	0.049253	0.347587
76	C	0.249861	0.028969	0.350873
77	C	0.234529	0.493342	0.350008
78	C	0.253308	0.476613	0.679365
79	C	0.288936	0.496897	0.676076
80	H	0.208922	0.479316	0.352668
81	C	0.227201	0.043311	0.35577
82	H	0.240572	0.07074	0.356324
83	H	0.213015	0.034451	0.387633
84	H	0.209475	0.035031	0.327254
85	N	0.238478	0.442234	0.678781
86	C	0.038988	0.247652	0.350008
87	C	0.05572	0.283163	0.679365
88	C	0.035435	0.298506	0.676072
89	H	0.053015	0.236073	0.352679
90	C	0.049778	0.335509	0.671176
91	H	0.077206	0.349566	0.670615
92	H	0.0415	0.344954	0.699695
93	H	0.040914	0.340833	0.639316
94	N	0.090095	0.302709	0.678781
95	C	0.210784	0.335726	0.679714
96	C	0.220423	0.370391	0.679697
97	C	0.196606	0.381525	0.679714
98	C	0.16194	0.356498	0.679697
99	C	0.150806	0.321549	0.679714
100	C	0.175832	0.311907	0.679694
101	H	0.144289	0.363937	0.679844
102	H	0.168394	0.286818	0.679848
103	H	0.245512	0.388042	0.679848
104	C	0.206176	0.416173	0.68007
105	C	0.116158	0.296469	0.68007
106	C	0.235861	0.326155	0.68007
107	H	0.260473	0.344906	0.680914
108	H	0.110298	0.271858	0.680911
109	H	0.187425	0.422033	0.680911
110	H	0.278324	0.180959	0.679372
111	C	0.289628	0.246841	0.680918
112	C	0.284678	0.297801	0.683342
113	C	0.249169	0.279024	0.0127
114	C	0.233824	0.243395	0.009417
115	C	0.254118	0.228063	0.010282
116	H	0.242538	0.202456	0.007618
117	C	0.196822	0.220735	0.00452
118	H	0.182764	0.234106	0.003963
119	H	0.187376	0.20301	0.033037
120	H	0.191496	0.206548	0.97266
121	N	0.22962	0.293851	0.012115
122	C	0.285489	0.049253	0.680921
123	C	0.249861	0.028969	0.684207
124	C	0.234529	0.493342	0.683342
125	C	0.253308	0.476613	0.0127
126	C	0.288936	0.496897	0.00941
127	H	0.208922	0.479316	0.686003
128	C	0.227201	0.043311	0.689104
129	H	0.240572	0.07074	0.689658
130	H	0.213015	0.034451	0.720964
131	H	0.209475	0.035031	0.660589
132	N	0.238478	0.442234	0.012115
133	C	0.038988	0.247652	0.683339
134	C	0.05572	0.283163	0.012696
135	C	0.035435	0.298506	0.009403
136	H	0.053015	0.236073	0.686013
137	C	0.049778	0.335509	0.00451
138	H	0.077206	0.349566	0.003949
139	H	0.0415	0.344954	0.033026
140	H	0.040914	0.340833	0.97265
141	N	0.090095	0.302709	0.012115
142	C	0.210784	0.835726	0.013049
143	C	0.220424	0.870392	0.013031
144	C	0.196607	0.881526	0.013048
145	C	0.161941	0.856499	0.01303
146	C	0.150808	0.821549	0.013046
147	C	0.175831	0.811908	0.013028
148	H	0.144289	0.863937	0.013178
149	H	0.168394	0.786818	0.013181
150	H	0.245513	0.888043	0.013179
151	C	0.206177	0.916173	0.013401
152	C	0.116158	0.79647	0.013402
153	C	0.235862	0.826156	0.013403
154	H	0.260473	0.844907	0.014247
155	H	0.110299	0.771858	0.014244
156	H	0.187425	0.922034	0.014245
157	H	0.278325	0.68096	0.012707
158	C	0.289628	0.746842	0.014251
159	C	0.284678	0.797801	0.016674
160	C	0.24917	0.779025	0.346035
161	C	0.233825	0.743395	0.342748
162	C	0.254118	0.728063	0.343617
163	H	0.242539	0.702457	0.340953
164	C	0.196822	0.720735	0.337854
165	H	0.182765	0.734107	0.337297
166	H	0.187377	0.703011	0.366371
167	H	0.191496	0.706548	0.305992
168	N	0.229621	0.793852	0.34545
169	C	0.28549	0.549253	0.014253
170	C	0.249861	0.528969	0.017541
171	C	0.234529	0.993343	0.016676
172	C	0.253307	0.976613	0.346031
173	C	0.288937	0.996897	0.342745
174	H	0.208922	0.979317	0.019335
175	C	0.227202	0.543313	0.022436
176	H	0.240573	0.570741	0.022992
177	H	0.213016	0.534452	0.054299
178	H	0.209475	0.535031	0.993923
179	N	0.238479	0.942235	0.345446
180	C	0.038989	0.747652	0.016673
181	C	0.055719	0.783163	0.346031
182	C	0.035434	0.798506	0.342738
183	H	0.053015	0.736073	0.019345
184	C	0.049779	0.83551	0.337842
185	H	0.077208	0.849566	0.337282
186	H	0.0415	0.844955	0.36636
187	H	0.040915	0.840834	0.305982
188	N	0.090096	0.80271	0.345446
189	C	0.210784	0.835726	0.346383
190	C	0.220424	0.870392	0.346363
191	C	0.196607	0.881526	0.34638
192	C	0.161941	0.856499	0.346363
193	C	0.150808	0.821549	0.34638
194	C	0.175831	0.811908	0.346363
195	H	0.144289	0.863937	0.346513
196	H	0.168394	0.786818	0.346513
197	H	0.245513	0.888043	0.346513
198	C	0.206177	0.916173	0.346736
199	C	0.116158	0.79647	0.346736
200	C	0.235862	0.826156	0.346736
201	H	0.260473	0.844907	0.34758
202	H	0.110299	0.771858	0.347577
203	H	0.187425	0.922034	0.347577
204	H	0.278325	0.68096	0.346041
205	C	0.289628	0.746842	0.347584
206	C	0.284678	0.797801	0.350008
207	C	0.24917	0.779025	0.679369
208	C	0.233825	0.743395	0.676083
209	C	0.254118	0.728063	0.676948
210	H	0.242539	0.702457	0.674287
211	C	0.196822	0.720735	0.671186
212	H	0.182765	0.734107	0.670632
213	H	0.187377	0.703011	0.699705
214	H	0.191496	0.706548	0.639326
215	N	0.229621	0.793852	0.678784
216	C	0.28549	0.549253	0.347587
217	C	0.249861	0.528969	0.350873
218	C	0.234529	0.993343	0.350008
219	C	0.253307	0.976613	0.679365
220	C	0.288937	0.996897	0.676076
221	H	0.208922	0.979317	0.352668
222	C	0.227202	0.543313	0.35577
223	H	0.240573	0.570741	0.356324
224	H	0.213016	0.534452	0.387633
225	H	0.209475	0.535031	0.327254
226	N	0.238479	0.942235	0.678781
227	C	0.038989	0.747652	0.350008
228	C	0.055719	0.783163	0.679365
229	C	0.035434	0.798506	0.676072
230	H	0.053015	0.736073	0.352679
231	C	0.049779	0.83551	0.671176
232	H	0.077208	0.849566	0.670615
233	H	0.0415	0.844955	0.699695
234	H	0.040915	0.840834	0.639316
235	N	0.090096	0.80271	0.678781
236	C	0.210784	0.835726	0.679714
237	C	0.220424	0.870392	0.679697
238	C	0.196607	0.881526	0.679714
239	C	0.161941	0.856499	0.679697
240	C	0.150808	0.821549	0.679714
241	C	0.175831	0.811908	0.679694
242	H	0.144289	0.863937	0.679844
243	H	0.168394	0.786818	0.679848
244	H	0.245513	0.888043	0.679848
245	C	0.206177	0.916173	0.68007
246	C	0.116158	0.79647	0.68007
247	C	0.235862	0.826156	0.68007
248	H	0.260473	0.844907	0.680914
249	H	0.110299	0.771858	0.680911
250	H	0.187425	0.922034	0.680911
251	H	0.278325	0.68096	0.679372
252	C	0.289628	0.746842	0.680918
253	C	0.284678	0.797801	0.683342
254	C	0.24917	0.779025	0.0127
255	C	0.233825	0.743395	0.009417
256	C	0.254118	0.728063	0.010282
257	H	0.242539	0.702457	0.007618
258	C	0.196822	0.720735	0.00452
259	H	0.182765	0.734107	0.003963
260	H	0.187377	0.703011	0.033037
261	H	0.191496	0.706548	0.97266
262	N	0.229621	0.793852	0.012115
263	C	0.28549	0.549253	0.680921
264	C	0.249861	0.528969	0.684207
265	C	0.234529	0.993343	0.683342
266	C	0.253307	0.976613	0.0127
267	C	0.288937	0.996897	0.00941
268	H	0.208922	0.979317	0.686003
269	C	0.227202	0.543313	0.689104
270	H	0.240573	0.570741	0.689658
271	H	0.213016	0.534452	0.720964
272	H	0.209475	0.535031	0.660589
273	N	0.238479	0.942235	0.012115
274	C	0.038989	0.747652	0.683339
275	C	0.055719	0.783163	0.012696
276	C	0.035434	0.798506	0.009403
277	H	0.053015	0.736073	0.686013
278	C	0.049779	0.83551	0.00451
279	H	0.077208	0.849566	0.003949
280	H	0.0415	0.844955	0.033026
281	H	0.040915	0.840834	0.97265
282	N	0.090096	0.80271	0.012115
283	C	0.328014	0.19014	0.013902
284	C	0.318374	0.155474	0.013921
285	C	0.342191	0.14434	0.013903
286	C	0.376856	0.169366	0.013921
287	C	0.387992	0.204317	0.013905
288	C	0.362965	0.213957	0.01392
289	H	0.394507	0.161928	0.013774
290	H	0.370401	0.239046	0.013772
291	H	0.293285	0.137823	0.013771
292	C	0.332622	0.109692	0.01355
293	C	0.422638	0.229396	0.013551
294	C	0.302935	0.199709	0.013548
295	H	0.4285	0.254008	0.012707
296	H	0.351372	0.103832	0.012707
297	C	0.304973	0.282471	0.017541
298	H	0.296259	0.323409	0.01933
299	C	0.341976	0.305131	0.022426
300	H	0.356033	0.291759	0.02298
301	H	0.347306	0.319321	0.054285
302	H	0.351417	0.322853	0.993906
303	N	0.309176	0.232013	0.014835
304	C	0.304267	0.032522	0.343617
305	H	0.329874	0.046548	0.340946
306	C	0.311595	0.482553	0.337844
307	H	0.298224	0.455125	0.337284
308	H	0.329321	0.490833	0.36636
309	H	0.325782	0.491417	0.305983
310	N	0.300319	0.08363	0.014836
311	H	0.461591	0.176299	0.023008
312	N	0.448702	0.223155	0.014839
313	C	0.328014	0.19014	0.347235
314	C	0.318374	0.155474	0.347255
315	C	0.342191	0.14434	0.347235
316	C	0.376856	0.169366	0.347255
317	C	0.387992	0.204317	0.347238
318	C	0.362965	0.213957	0.347255
319	H	0.394507	0.161928	0.347108
320	H	0.370401	0.239046	0.347105
321	H	0.293285	0.137823	0.347105
322	C	0.332622	0.109692	0.346883
323	C	0.422638	0.229396	0.346886
324	C	0.302935	0.199709	0.346883
325	H	0.4285	0.254008	0.346041
326	H	0.351372	0.103832	0.346041
327	C	0.304973	0.282471	0.350873
328	H	0.296259	0.323409	0.352665
329	C	0.341976	0.305131	0.35576
330	H	0.356033	0.291759	0.356314
331	H	0.347306	0.319321	0.38762
332	H	0.351417	0.322853	0.327239
333	N	0.309176	0.232013	0.348168
334	C	0.304267	0.032522	0.676948
335	H	0.329874	0.046548	0.674281
336	C	0.311595	0.482553	0.671179
337	H	0.298224	0.455125	0.670618
338	H	0.329321	0.490833	0.699695
339	H	0.325782	0.491417	0.639316
340	N	0.300319	0.08363	0.348168
341	H	0.461591	0.176299	0.356341
342	N	0.448702	0.223155	0.348172
343	C	0.328014	0.19014	0.680569
344	C	0.318374	0.155474	0.68059
345	C	0.342191	0.14434	0.680569
346	C	0.376856	0.169366	0.68059
347	C	0.387992	0.204317	0.680572
348	C	0.362965	0.213957	0.680586
349	H	0.394507	0.161928	0.680443
350	H	0.370401	0.239046	0.680439
351	H	0.293285	0.137823	0.680439
352	C	0.332622	0.109692	0.680217
353	C	0.422638	0.229396	0.680217
354	C	0.302935	0.199709	0.680213
355	H	0.4285	0.254008	0.679376
356	H	0.351372	0.103832	0.679376
357	C	0.304973	0.282471	0.684207
358	H	0.296259	0.323409	0.685996
359	C	0.341976	0.305131	0.689094
360	H	0.356033	0.291759	0.689648
361	H	0.347306	0.319321	0.720951
362	H	0.351417	0.322853	0.660572
363	N	0.309176	0.232013	0.681503
364	C	0.304267	0.032522	0.010282
365	H	0.329874	0.046548	0.007611
366	C	0.311595	0.482553	0.00451
367	H	0.298224	0.455125	0.003949
368	H	0.329321	0.490833	0.033027
369	H	0.325782	0.491417	0.97265
370	N	0.300319	0.08363	0.681503
371	H	0.461591	0.176299	0.689675
372	N	0.448702	0.223155	0.681506
373	C	0.328014	0.69014	0.013902
374	C	0.318374	0.655475	0.013921
375	C	0.342191	0.644341	0.013903
376	C	0.376858	0.669368	0.013921
377	C	0.387991	0.704317	0.013905
378	C	0.362965	0.713958	0.01392
379	H	0.394508	0.661929	0.013774
380	H	0.370403	0.739046	0.013772
381	H	0.293285	0.637824	0.013771
382	C	0.332622	0.609693	0.01355
383	C	0.422639	0.729397	0.013551
384	C	0.302936	0.699711	0.013548
385	H	0.4285	0.754008	0.012707
386	H	0.351373	0.603833	0.012707
387	C	0.304973	0.782471	0.017541
388	H	0.296259	0.823409	0.01933
389	C	0.341976	0.805132	0.022426
390	H	0.356034	0.79176	0.02298
391	H	0.347306	0.819321	0.054285
392	H	0.351417	0.822853	0.993906
393	N	0.309176	0.732012	0.014835
394	C	0.304268	0.532521	0.343617
395	H	0.329875	0.54655	0.340946
396	C	0.311596	0.982554	0.337844
397	H	0.298225	0.955126	0.337284
398	H	0.32932	0.990831	0.36636
399	H	0.325782	0.991417	0.305983
400	N	0.300318	0.583629	0.014836
401	H	0.461591	0.6763	0.023008
402	N	0.448702	0.723157	0.014839
403	C	0.328014	0.69014	0.347235
404	C	0.318374	0.655475	0.347255
405	C	0.342191	0.644341	0.347235
406	C	0.376858	0.669368	0.347255
407	C	0.387991	0.704317	0.347238
408	C	0.362965	0.713958	0.347255
409	H	0.394508	0.661929	0.347108
410	H	0.370403	0.739046	0.347105
411	H	0.293285	0.637824	0.347105
412	C	0.332622	0.609693	0.346883
413	C	0.422639	0.729397	0.346886
414	C	0.302936	0.699711	0.346883
415	H	0.4285	0.754008	0.346041
416	H	0.351373	0.603833	0.346041
417	C	0.304973	0.782471	0.350873
418	H	0.296259	0.823409	0.352665
419	C	0.341976	0.805132	0.35576
420	H	0.356034	0.79176	0.356314
421	H	0.347306	0.819321	0.38762
422	H	0.351417	0.822853	0.327239
423	N	0.309176	0.732012	0.348168
424	C	0.304268	0.532521	0.676948
425	H	0.329875	0.54655	0.674281
426	C	0.311596	0.982554	0.671179
427	H	0.298225	0.955126	0.670618
428	H	0.32932	0.990831	0.699695
429	H	0.325782	0.991417	0.639316
430	N	0.300318	0.583629	0.348168
431	H	0.461591	0.6763	0.356341
432	N	0.448702	0.723157	0.348172
433	C	0.328014	0.69014	0.680569
434	C	0.318374	0.655475	0.68059
435	C	0.342191	0.644341	0.680569
436	C	0.376858	0.669368	0.68059
437	C	0.387991	0.704317	0.680572
438	C	0.362965	0.713958	0.680586
439	H	0.394508	0.661929	0.680443
440	H	0.370403	0.739046	0.680439
441	H	0.293285	0.637824	0.680439
442	C	0.332622	0.609693	0.680217
443	C	0.422639	0.729397	0.680217
444	C	0.302936	0.699711	0.680213
445	H	0.4285	0.754008	0.679376
446	H	0.351373	0.603833	0.679376
447	C	0.304973	0.782471	0.684207
448	H	0.296259	0.823409	0.685996
449	C	0.341976	0.805132	0.689094
450	H	0.356034	0.79176	0.689648
451	H	0.347306	0.819321	0.720951
452	H	0.351417	0.822853	0.660572
453	N	0.309176	0.732012	0.681503
454	C	0.304268	0.532521	0.010282
455	H	0.329875	0.54655	0.007611
456	C	0.311596	0.982554	0.00451
457	H	0.298225	0.955126	0.003949
458	H	0.32932	0.990831	0.033027
459	H	0.325782	0.991417	0.97265
460	N	0.300318	0.583629	0.681503
461	H	0.461591	0.6763	0.689675
462	N	0.448702	0.723157	0.681506
463	C	0.483077	0.242703	0.014254
464	C	0.503362	0.227359	0.017544
465	C	0.499807	0.278211	0.343613
466	H	0.485782	0.289791	0.340942
467	C	0.48902	0.190357	0.022449
468	H	0.497883	0.185036	0.054312
469	H	0.497297	0.180908	0.993937
470	C	0.483077	0.242703	0.347587
471	C	0.503362	0.227359	0.350877
472	C	0.499807	0.278211	0.676948
473	H	0.485782	0.289791	0.674274
474	C	0.48902	0.190357	0.355784
475	H	0.497883	0.185036	0.387644
476	H	0.497297	0.180908	0.327268
477	C	0.483077	0.242703	0.680921
478	C	0.503362	0.227359	0.684211
479	C	0.499807	0.278211	0.010279
480	H	0.485782	0.289791	0.007608
481	C	0.48902	0.190357	0.689115
482	H	0.497883	0.185036	0.720978
483	H	0.497297	0.180908	0.660602
484	C	0.483078	0.742703	0.014254
485	C	0.503363	0.72736	0.017544
486	C	0.499808	0.778212	0.343613
487	H	0.485782	0.789791	0.340942
488	C	0.48902	0.690357	0.022449
489	H	0.497882	0.685035	0.054312
490	H	0.497298	0.680909	0.993937
491	C	0.483078	0.742703	0.347587
492	C	0.503363	0.72736	0.350877
493	C	0.499808	0.778212	0.676948
494	H	0.485782	0.789791	0.674274
495	C	0.48902	0.690357	0.355784
496	H	0.497882	0.685035	0.387644
497	H	0.497298	0.680909	0.327268
498	C	0.483078	0.742703	0.680921
499	C	0.503363	0.72736	0.684211
500	C	0.499808	0.778212	0.010279
501	H	0.485782	0.789791	0.007608
502	C	0.48902	0.690357	0.689115
503	H	0.497882	0.685035	0.720978
504	H	0.497298	0.680909	0.660602
505	H	0.610298	0.271858	0.014244
506	C	0.538989	0.247652	0.016673
507	C	0.555719	0.283163	0.346031
508	C	0.535434	0.298506	0.342738
509	H	0.553015	0.236073	0.019345
510	C	0.549777	0.335509	0.337842
511	H	0.577205	0.349566	0.337282
512	H	0.5415	0.344954	0.36636
513	H	0.540915	0.340833	0.305982
514	N	0.590094	0.302709	0.345446
515	H	0.610298	0.271858	0.347577
516	C	0.538989	0.247652	0.350008
517	C	0.555719	0.283163	0.679365
518	C	0.535434	0.298506	0.676072
519	H	0.553015	0.236073	0.352679
520	C	0.549777	0.335509	0.671176
521	H	0.577205	0.349566	0.670615
522	H	0.5415	0.344954	0.699695
523	H	0.540915	0.340833	0.639316
524	N	0.590094	0.302709	0.678781
525	H	0.610298	0.271858	0.680911
526	C	0.538989	0.247652	0.683339
527	C	0.555719	0.283163	0.012696
528	C	0.535434	0.298506	0.009403
529	H	0.553015	0.236073	0.686013
530	C	0.549777	0.335509	0.00451
531	H	0.577205	0.349566	0.003949
532	H	0.5415	0.344954	0.033026
533	H	0.540915	0.340833	0.97265
534	N	0.590094	0.302709	0.012115
535	H	0.610299	0.771858	0.014244
536	C	0.538988	0.747652	0.016673
537	C	0.55572	0.783163	0.346031
538	C	0.535435	0.798506	0.342738
539	H	0.553015	0.736073	0.019345
540	C	0.549778	0.83551	0.337842
541	H	0.577207	0.849566	0.337282
542	H	0.5415	0.844955	0.36636
543	H	0.540914	0.840834	0.305982
544	N	0.590096	0.80271	0.345446
545	H	0.610299	0.771858	0.347577
546	C	0.538988	0.747652	0.350008
547	C	0.55572	0.783163	0.679365
548	C	0.535435	0.798506	0.676072
549	H	0.553015	0.736073	0.352679
550	C	0.549778	0.83551	0.671176
551	H	0.577207	0.849566	0.670615
552	H	0.5415	0.844955	0.699695
553	H	0.540914	0.840834	0.639316
554	N	0.590096	0.80271	0.678781
555	H	0.610299	0.771858	0.680911
556	C	0.538988	0.747652	0.683339
557	C	0.55572	0.783163	0.012696
558	C	0.535435	0.798506	0.009403
559	H	0.553015	0.736073	0.686013
560	C	0.549778	0.83551	0.00451
561	H	0.577207	0.849566	0.003949
562	H	0.5415	0.844955	0.033026
563	H	0.540914	0.840834	0.97265
564	N	0.590096	0.80271	0.012115
565	C	0.710783	0.335726	0.013049
566	C	0.720423	0.370391	0.013031
567	C	0.696605	0.381525	0.013048
568	C	0.661941	0.356498	0.01303
569	C	0.650805	0.321549	0.013046
570	C	0.675831	0.311907	0.013028
571	H	0.644289	0.363937	0.013178
572	H	0.668394	0.286818	0.013181
573	H	0.745511	0.388042	0.013179
574	C	0.706175	0.416173	0.013401
575	C	0.616158	0.296469	0.013402
576	C	0.735862	0.326155	0.013403
577	H	0.760471	0.344906	0.014247
578	H	0.687424	0.422033	0.014245
579	C	0.828014	0.19014	0.013902
580	C	0.818374	0.155474	0.013921
581	C	0.842191	0.14434	0.013903
582	C	0.876856	0.169366	0.013921
583	C	0.887989	0.204317	0.013905
584	C	0.862965	0.213957	0.01392
585	H	0.894507	0.161928	0.013774
586	H	0.870401	0.239046	0.013772
587	H	0.793285	0.137823	0.013771
588	C	0.832622	0.109692	0.01355
589	C	0.922638	0.229396	0.013551
590	C	0.802934	0.199709	0.013548
591	H	0.778323	0.180959	0.012707
592	H	0.928498	0.254008	0.012707
593	H	0.851372	0.103832	0.012707
594	C	0.789627	0.246841	0.014251
595	C	0.804972	0.282471	0.017541
596	C	0.784678	0.297801	0.016674
597	C	0.749169	0.279024	0.346035
598	C	0.733824	0.243395	0.342748
599	H	0.796257	0.323409	0.01933
600	C	0.754117	0.228063	0.343617
601	H	0.742539	0.202456	0.340953
602	C	0.696822	0.220735	0.337854
603	H	0.682763	0.234106	0.337297
604	H	0.687376	0.20301	0.366371
605	H	0.691495	0.206548	0.305992
606	C	0.841976	0.305131	0.022426
607	H	0.856033	0.291759	0.02298
608	H	0.847305	0.319321	0.054285
609	H	0.851417	0.322853	0.993906
610	N	0.809175	0.232013	0.014835
611	N	0.72962	0.293851	0.34545
612	C	0.785489	0.049253	0.014253
613	C	0.749861	0.028969	0.017541
614	C	0.734528	0.493342	0.016676
615	C	0.753307	0.476613	0.346031
616	C	0.788936	0.496897	0.342745
617	H	0.708922	0.479316	0.019335
618	C	0.804267	0.032522	0.343617
619	H	0.829874	0.046548	0.340946
620	C	0.811595	0.482553	0.337844
621	H	0.798223	0.455125	0.337284
622	H	0.829321	0.490833	0.36636
623	H	0.825783	0.491417	0.305983
624	C	0.727201	0.043311	0.022436
625	H	0.740571	0.07074	0.022992
626	H	0.713015	0.034451	0.054299
627	H	0.709475	0.035031	0.993923
628	N	0.800317	0.08363	0.014836
629	N	0.738479	0.442234	0.345446
630	C	0.983077	0.242703	0.014254
631	C	0.003362	0.227359	0.017544
632	C	0.999807	0.278211	0.343613
633	H	0.98578	0.289791	0.340942
634	C	0.989018	0.190357	0.022449
635	H	0.961591	0.176299	0.023008
636	H	0.997881	0.185036	0.054312
637	H	0.997297	0.180908	0.993937
638	N	0.9487	0.223155	0.014839
639	C	0.710783	0.335726	0.346383
640	C	0.720423	0.370391	0.346363
641	C	0.696605	0.381525	0.34638
642	C	0.661941	0.356498	0.346363
643	C	0.650805	0.321549	0.34638
644	C	0.675831	0.311907	0.346363
645	H	0.644289	0.363937	0.346513
646	H	0.668394	0.286818	0.346513
647	H	0.745511	0.388042	0.346513
648	C	0.706175	0.416173	0.346736
649	C	0.616158	0.296469	0.346736
650	C	0.735862	0.326155	0.346736
651	H	0.760471	0.344906	0.34758
652	H	0.687424	0.422033	0.347577
653	C	0.828014	0.19014	0.347235
654	C	0.818374	0.155474	0.347255
655	C	0.842191	0.14434	0.347235
656	C	0.876856	0.169366	0.347255
657	C	0.887989	0.204317	0.347238
658	C	0.862965	0.213957	0.347255
659	H	0.894507	0.161928	0.347108
660	H	0.870401	0.239046	0.347105
661	H	0.793285	0.137823	0.347105
662	C	0.832622	0.109692	0.346883
663	C	0.922638	0.229396	0.346886
664	C	0.802934	0.199709	0.346883
665	H	0.778323	0.180959	0.346041
666	H	0.928498	0.254008	0.346041
667	H	0.851372	0.103832	0.346041
668	C	0.789627	0.246841	0.347584
669	C	0.804972	0.282471	0.350873
670	C	0.784678	0.297801	0.350008
671	C	0.749169	0.279024	0.679369
672	C	0.733824	0.243395	0.676083
673	H	0.796257	0.323409	0.352665
674	C	0.754117	0.228063	0.676948
675	H	0.742539	0.202456	0.674287
676	C	0.696822	0.220735	0.671186
677	H	0.682763	0.234106	0.670632
678	H	0.687376	0.20301	0.699705
679	H	0.691495	0.206548	0.639326
680	C	0.841976	0.305131	0.35576
681	H	0.856033	0.291759	0.356314
682	H	0.847305	0.319321	0.38762
683	H	0.851417	0.322853	0.327239
684	N	0.809175	0.232013	0.348168
685	N	0.72962	0.293851	0.678784
686	C	0.785489	0.049253	0.347587
687	C	0.749861	0.028969	0.350873
688	C	0.734528	0.493342	0.350008
689	C	0.753307	0.476613	0.679365
690	C	0.788936	0.496897	0.676076
691	H	0.708922	0.479316	0.352668
692	C	0.804267	0.032522	0.676948
693	H	0.829874	0.046548	0.674281
694	C	0.811595	0.482553	0.671179
695	H	0.798223	0.455125	0.670618
696	H	0.829321	0.490833	0.699695
697	H	0.825783	0.491417	0.639316
698	C	0.727201	0.043311	0.35577
699	H	0.740571	0.07074	0.356324
700	H	0.713015	0.034451	0.387633
701	H	0.709475	0.035031	0.327254
702	N	0.800317	0.08363	0.348168
703	N	0.738479	0.442234	0.678781
704	C	0.983077	0.242703	0.347587
705	C	0.003362	0.227359	0.350877
706	C	0.999807	0.278211	0.676948
707	H	0.98578	0.289791	0.674274
708	C	0.989018	0.190357	0.355784
709	H	0.961591	0.176299	0.356341
710	H	0.997881	0.185036	0.387644
711	H	0.997297	0.180908	0.327268
712	N	0.9487	0.223155	0.348172
713	C	0.710783	0.335726	0.679714
714	C	0.720423	0.370391	0.679697
715	C	0.696605	0.381525	0.679714
716	C	0.661941	0.356498	0.679697
717	C	0.650805	0.321549	0.679714
718	C	0.675831	0.311907	0.679694
719	H	0.644289	0.363937	0.679844
720	H	0.668394	0.286818	0.679848
721	H	0.745511	0.388042	0.679848
722	C	0.706175	0.416173	0.68007
723	C	0.616158	0.296469	0.68007
724	C	0.735862	0.326155	0.68007
725	H	0.760471	0.344906	0.680914
726	H	0.687424	0.422033	0.680911
727	C	0.828014	0.19014	0.680569
728	C	0.818374	0.155474	0.68059
729	C	0.842191	0.14434	0.680569
730	C	0.876856	0.169366	0.68059
731	C	0.887989	0.204317	0.680572
732	C	0.862965	0.213957	0.680586
733	H	0.894507	0.161928	0.680443
734	H	0.870401	0.239046	0.680439
735	H	0.793285	0.137823	0.680439
736	C	0.832622	0.109692	0.680217
737	C	0.922638	0.229396	0.680217
738	C	0.802934	0.199709	0.680213
739	H	0.778323	0.180959	0.679372
740	H	0.928498	0.254008	0.679376
741	H	0.851372	0.103832	0.679376
742	C	0.789627	0.246841	0.680918
743	C	0.804972	0.282471	0.684207
744	C	0.784678	0.297801	0.683342
745	C	0.749169	0.279024	0.0127
746	C	0.733824	0.243395	0.009417
747	H	0.796257	0.323409	0.685996
748	C	0.754117	0.228063	0.010282
749	H	0.742539	0.202456	0.007618
750	C	0.696822	0.220735	0.00452
751	H	0.682763	0.234106	0.003963
752	H	0.687376	0.20301	0.033037
753	H	0.691495	0.206548	0.97266
754	C	0.841976	0.305131	0.689094
755	H	0.856033	0.291759	0.689648
756	H	0.847305	0.319321	0.720951
757	H	0.851417	0.322853	0.660572
758	N	0.809175	0.232013	0.681503
759	N	0.72962	0.293851	0.012115
760	C	0.785489	0.049253	0.680921
761	C	0.749861	0.028969	0.684207
762	C	0.734528	0.493342	0.683342
763	C	0.753307	0.476613	0.0127
764	C	0.788936	0.496897	0.00941
765	H	0.708922	0.479316	0.686003
766	C	0.804267	0.032522	0.010282
767	H	0.829874	0.046548	0.007611
768	C	0.811595	0.482553	0.00451
769	H	0.798223	0.455125	0.003949
770	H	0.829321	0.490833	0.033027
771	H	0.825783	0.491417	0.97265
772	C	0.727201	0.043311	0.689104
773	H	0.740571	0.07074	0.689658
774	H	0.713015	0.034451	0.720964
775	H	0.709475	0.035031	0.660589
776	N	0.800317	0.08363	0.681503
777	N	0.738479	0.442234	0.012115
778	C	0.983077	0.242703	0.680921
779	C	0.003362	0.227359	0.684211
780	C	0.999807	0.278211	0.010279
781	H	0.98578	0.289791	0.007608
782	C	0.989018	0.190357	0.689115
783	H	0.961591	0.176299	0.689675
784	H	0.997881	0.185036	0.720978
785	H	0.997297	0.180908	0.660602
786	N	0.9487	0.223155	0.681506
787	C	0.710783	0.835726	0.013049
788	C	0.720423	0.870392	0.013031
789	C	0.696605	0.881526	0.013048
790	C	0.661941	0.856499	0.01303
791	C	0.650808	0.821549	0.013046
792	C	0.675831	0.811908	0.013028
793	H	0.644289	0.863937	0.013178
794	H	0.668394	0.786818	0.013181
795	H	0.745511	0.888043	0.013179
796	C	0.706175	0.916173	0.013401
797	C	0.616158	0.79647	0.013402
798	C	0.735862	0.826156	0.013403
799	H	0.760474	0.844907	0.014247
800	H	0.687425	0.922034	0.014245
801	C	0.828014	0.69014	0.013902
802	C	0.818374	0.655475	0.013921
803	C	0.842192	0.644341	0.013903
804	C	0.876856	0.669368	0.013921
805	C	0.887992	0.704317	0.013905
806	C	0.862966	0.713958	0.01392
807	H	0.894508	0.661929	0.013774
808	H	0.870401	0.739046	0.013772
809	H	0.793286	0.637824	0.013771
810	C	0.832622	0.609693	0.01355
811	C	0.922639	0.729397	0.013551
812	C	0.802935	0.699711	0.013548
813	H	0.778325	0.68096	0.012707
814	H	0.928498	0.754008	0.012707
815	H	0.851372	0.603833	0.012707
816	C	0.789627	0.746842	0.014251
817	C	0.804972	0.782471	0.017541
818	C	0.784679	0.797801	0.016674
819	C	0.749169	0.779025	0.346035
820	C	0.733825	0.743395	0.342748
821	H	0.79626	0.823409	0.01933
822	C	0.754117	0.728063	0.343617
823	H	0.742539	0.702457	0.340953
824	C	0.696823	0.720735	0.337854
825	H	0.682763	0.734107	0.337297
826	H	0.687376	0.703011	0.366371
827	H	0.691497	0.706548	0.305992
828	C	0.841977	0.805132	0.022426
829	H	0.856034	0.79176	0.02298
830	H	0.847306	0.819321	0.054285
831	H	0.851417	0.822853	0.993906
832	N	0.809175	0.732012	0.014835
833	N	0.72962	0.793852	0.34545
834	C	0.78549	0.549253	0.014253
835	C	0.749861	0.528969	0.017541
836	C	0.734529	0.993343	0.016676
837	C	0.753307	0.976613	0.346031
838	C	0.788936	0.996897	0.342745
839	H	0.708922	0.979317	0.019335
840	C	0.804267	0.532521	0.343617
841	H	0.829875	0.54655	0.340946
842	C	0.811596	0.982554	0.337844
843	H	0.798224	0.955126	0.337284
844	H	0.82932	0.990831	0.36636
845	H	0.825783	0.991417	0.305983
846	C	0.727201	0.543313	0.022436
847	H	0.740573	0.570741	0.022992
848	H	0.713015	0.534452	0.054299
849	H	0.709475	0.535031	0.993923
850	N	0.800317	0.583629	0.014836
851	N	0.738479	0.942235	0.345446
852	C	0.983077	0.742703	0.014254
853	C	0.003363	0.72736	0.017544
854	C	0.999807	0.778212	0.343613
855	H	0.985781	0.789791	0.340942
856	C	0.98902	0.690357	0.022449
857	H	0.961591	0.6763	0.023008
858	H	0.997883	0.685035	0.054312
859	H	0.997298	0.680909	0.993937
860	N	0.948703	0.723157	0.014839
861	C	0.710783	0.835726	0.346383
862	C	0.720423	0.870392	0.346363
863	C	0.696605	0.881526	0.34638
864	C	0.661941	0.856499	0.346363
865	C	0.650808	0.821549	0.34638
866	C	0.675831	0.811908	0.346363
867	H	0.644289	0.863937	0.346513
868	H	0.668394	0.786818	0.346513
869	H	0.745511	0.888043	0.346513
870	C	0.706175	0.916173	0.346736
871	C	0.616158	0.79647	0.346736
872	C	0.735862	0.826156	0.346736
873	H	0.760474	0.844907	0.34758
874	H	0.687425	0.922034	0.347577
875	C	0.828014	0.69014	0.347235
876	C	0.818374	0.655475	0.347255
877	C	0.842192	0.644341	0.347235
878	C	0.876856	0.669368	0.347255
879	C	0.887992	0.704317	0.347238
880	C	0.862966	0.713958	0.347255
881	H	0.894508	0.661929	0.347108
882	H	0.870401	0.739046	0.347105
883	H	0.793286	0.637824	0.347105
884	C	0.832622	0.609693	0.346883
885	C	0.922639	0.729397	0.346886
886	C	0.802935	0.699711	0.346883
887	H	0.778325	0.68096	0.346041
888	H	0.928498	0.754008	0.346041
889	H	0.851372	0.603833	0.346041
890	C	0.789627	0.746842	0.347584
891	C	0.804972	0.782471	0.350873
892	C	0.784679	0.797801	0.350008
893	C	0.749169	0.779025	0.679369
894	C	0.733825	0.743395	0.676083
895	H	0.79626	0.823409	0.352665
896	C	0.754117	0.728063	0.676948
897	H	0.742539	0.702457	0.674287
898	C	0.696823	0.720735	0.671186
899	H	0.682763	0.734107	0.670632
900	H	0.687376	0.703011	0.699705
901	H	0.691497	0.706548	0.639326
902	C	0.841977	0.805132	0.35576
903	H	0.856034	0.79176	0.356314
904	H	0.847306	0.819321	0.38762
905	H	0.851417	0.822853	0.327239
906	N	0.809175	0.732012	0.348168
907	N	0.72962	0.793852	0.678784
908	C	0.78549	0.549253	0.347587
909	C	0.749861	0.528969	0.350873
910	C	0.734529	0.993343	0.350008
911	C	0.753307	0.976613	0.679365
912	C	0.788936	0.996897	0.676076
913	H	0.708922	0.979317	0.352668
914	C	0.804267	0.532521	0.676948
915	H	0.829875	0.54655	0.674281
916	C	0.811596	0.982554	0.671179
917	H	0.798224	0.955126	0.670618
918	H	0.82932	0.990831	0.699695
919	H	0.825783	0.991417	0.639316
920	C	0.727201	0.543313	0.35577
921	H	0.740573	0.570741	0.356324
922	H	0.713015	0.534452	0.387633
923	H	0.709475	0.535031	0.327254
924	N	0.800317	0.583629	0.348168
925	N	0.738479	0.942235	0.678781
926	C	0.983077	0.742703	0.347587
927	C	0.003363	0.72736	0.350877
928	C	0.999807	0.778212	0.676948
929	H	0.985781	0.789791	0.674274
930	C	0.98902	0.690357	0.355784
931	H	0.961591	0.6763	0.356341
932	H	0.997883	0.685035	0.387644
933	H	0.997298	0.680909	0.327268
934	N	0.948703	0.723157	0.348172
935	C	0.710783	0.835726	0.679714
936	C	0.720423	0.870392	0.679697
937	C	0.696605	0.881526	0.679714
938	C	0.661941	0.856499	0.679697
939	C	0.650808	0.821549	0.679714
940	C	0.675831	0.811908	0.679694
941	H	0.644289	0.863937	0.679844
942	H	0.668394	0.786818	0.679848
943	H	0.745511	0.888043	0.679848
944	C	0.706175	0.916173	0.68007
945	C	0.616158	0.79647	0.68007
946	C	0.735862	0.826156	0.68007
947	H	0.760474	0.844907	0.680914
948	H	0.687425	0.922034	0.680911
949	C	0.828014	0.69014	0.680569
950	C	0.818374	0.655475	0.68059
951	C	0.842192	0.644341	0.680569
952	C	0.876856	0.669368	0.68059
953	C	0.887992	0.704317	0.680572
954	C	0.862966	0.713958	0.680586
955	H	0.894508	0.661929	0.680443
956	H	0.870401	0.739046	0.680439
957	H	0.793286	0.637824	0.680439
958	C	0.832622	0.609693	0.680217
959	C	0.922639	0.729397	0.680217
960	C	0.802935	0.699711	0.680213
961	H	0.778325	0.68096	0.679372
962	H	0.928498	0.754008	0.679376
963	H	0.851372	0.603833	0.679376
964	C	0.789627	0.746842	0.680918
965	C	0.804972	0.782471	0.684207
966	C	0.784679	0.797801	0.683342
967	C	0.749169	0.779025	0.0127
968	C	0.733825	0.743395	0.009417
969	H	0.79626	0.823409	0.685996
970	C	0.754117	0.728063	0.010282
971	H	0.742539	0.702457	0.007618
972	C	0.696823	0.720735	0.00452
973	H	0.682763	0.734107	0.003963
974	H	0.687376	0.703011	0.033037
975	H	0.691497	0.706548	0.97266
976	C	0.841977	0.805132	0.689094
977	H	0.856034	0.79176	0.689648
978	H	0.847306	0.819321	0.720951
979	H	0.851417	0.822853	0.660572
980	N	0.809175	0.732012	0.681503
981	N	0.72962	0.793852	0.012115
982	C	0.78549	0.549253	0.680921
983	C	0.749861	0.528969	0.684207
984	C	0.734529	0.993343	0.683342
985	C	0.753307	0.976613	0.0127
986	C	0.788936	0.996897	0.00941
987	H	0.708922	0.979317	0.686003
988	C	0.804267	0.532521	0.010282
989	H	0.829875	0.54655	0.007611
990	C	0.811596	0.982554	0.00451
991	H	0.798224	0.955126	0.003949
992	H	0.82932	0.990831	0.033027
993	H	0.825783	0.991417	0.97265
994	C	0.727201	0.543313	0.689104
995	H	0.740573	0.570741	0.689658
996	H	0.713015	0.534452	0.720964
997	H	0.709475	0.535031	0.660589
998	N	0.800317	0.583629	0.681503
999	N	0.738479	0.942235	0.012115
1000	C	0.983077	0.742703	0.680921
1001	C	0.003363	0.72736	0.684211
1002	C	0.999807	0.778212	0.010279
1003	H	0.985781	0.789791	0.007608
1004	C	0.98902	0.690357	0.689115
1005	H	0.961591	0.6763	0.689675
1006	H	0.997883	0.685035	0.720978
1007	H	0.997298	0.680909	0.660602
1008	N	0.948703	0.723157	0.681506
