data_C504H216N144O144_2018-02-15_10:37:06
#******************************************
#
# CIF file created by Zeo++
# Zeo++ is an open source package to
# analyze microporous materials
#
#*******************************************

_cell_length_a		44.031   
_cell_length_b		44.031   
_cell_length_c		29.8956   
_cell_angle_alpha		90   
_cell_angle_beta		90   
_cell_angle_gamma		120   

_symmetry_space_group_name_H-M		'P1'
_symmetry_Int_Tables_number		1
_symmetry_cell_setting		Monoclinic

loop_
_symmetry_equiv_pos_as_xyz
'+x,+y,+z'

loop_
_atom_site_label
_atom_site_type_symbol
_atom_site_fract_x
_atom_site_fract_y
_atom_site_fract_z
1	C	0.020937	0.265245	0.002317
2	C	0.023785	0.322341	0.329271
3	O	0.026018	0.337591	0.294178
4	C	0.020937	0.265245	0.335651
5	C	0.023785	0.322341	0.662605
6	O	0.026018	0.337591	0.627513
7	C	0.020937	0.265245	0.668984
8	C	0.023785	0.322341	0.995938
9	O	0.026018	0.337591	0.960846
10	C	0.020939	0.765245	0.002317
11	C	0.023785	0.822342	0.329271
12	O	0.02602	0.837591	0.294178
13	C	0.020939	0.765245	0.335651
14	C	0.023785	0.822342	0.662605
15	O	0.02602	0.837591	0.627513
16	C	0.020939	0.765245	0.668984
17	C	0.023785	0.822342	0.995938
18	O	0.02602	0.837591	0.960846
19	O	0.02156	0.337085	0.3632
20	H	0.02179	0.330028	0.390876
21	O	0.02156	0.337085	0.696536
22	H	0.02179	0.330028	0.724213
23	O	0.02156	0.337085	0.029868
24	H	0.02179	0.330028	0.057544
25	O	0.021561	0.837085	0.3632
26	H	0.02179	0.830025	0.390876
27	O	0.021561	0.837085	0.696536
28	H	0.02179	0.830025	0.724213
29	O	0.021561	0.837085	0.029868
30	H	0.02179	0.830025	0.057544
31	C	0.040137	0.302339	0.330322
32	N	0.039649	0.248321	0.004018
33	C	0.040137	0.302339	0.663655
34	N	0.039649	0.248321	0.337354
35	C	0.040137	0.302339	0.996988
36	N	0.039649	0.248321	0.670686
37	C	0.040138	0.80234	0.330322
38	N	0.039648	0.74832	0.004018
39	C	0.040138	0.80234	0.663655
40	N	0.039648	0.74832	0.337354
41	C	0.040138	0.80234	0.996988
42	N	0.039648	0.74832	0.670686
43	C	0.07728	0.319611	0.328892
44	C	0.075056	0.264093	0.002043
45	C	0.07728	0.319611	0.662227
46	C	0.075056	0.264093	0.335377
47	C	0.07728	0.319611	0.99556
48	C	0.075056	0.264093	0.66871
49	C	0.07728	0.819609	0.328892
50	C	0.075056	0.764094	0.002043
51	C	0.07728	0.819609	0.662227
52	C	0.075056	0.764094	0.335377
53	C	0.07728	0.819609	0.99556
54	C	0.075056	0.764094	0.66871
55	C	0.188682	0.371261	0.997403
56	N	0.152997	0.353897	0.997473
57	C	0.133101	0.318292	0.997403
58	N	0.150465	0.299971	0.997473
59	C	0.186069	0.31568	0.997403
60	N	0.20439	0.351364	0.997473
61	C	0.318166	0.132459	0.001641
62	N	0.353823	0.150907	0.001747
63	C	0.371902	0.186578	0.001638
64	N	0.353455	0.203787	0.001745
65	C	0.317784	0.186195	0.001641
66	N	0.300574	0.150538	0.00175
67	C	0.299021	0.204552	0.002676
68	C	0.267918	0.192987	0.311195
69	N	0.250562	0.211139	0.312861
70	C	0.260151	0.240165	0.005038
71	C	0.291061	0.252668	0.031564
72	C	0.310279	0.234741	0.029477
73	H	0.33206	0.242941	0.049202
74	C	0.239117	0.256564	0.002318
75	C	0.202022	0.238669	0.330323
76	C	0.184752	0.258541	0.328893
77	C	0.203423	0.295634	0.998126
78	C	0.240267	0.311833	0.002043
79	N	0.256042	0.292201	0.004019
80	H	0.157977	0.24557	0.326066
81	H	0.255777	0.338451	0.004132
82	H	0.258499	0.171519	0.290817
83	C	0.182021	0.202315	0.329272
84	C	0.30122	0.279778	0.06196
85	O	0.166772	0.189299	0.294179
86	O	0.167277	0.185346	0.363203
87	H	0.174336	0.192635	0.39088
88	O	0.331679	0.303929	0.061742
89	O	0.28361	0.273136	0.096546
90	H	0.289046	0.287858	0.119272
91	C	0.299811	0.09534	0.002681
92	C	0.311372	0.075801	0.311195
93	N	0.293221	0.040294	0.31286
94	C	0.264195	0.020857	0.005038
95	C	0.251691	0.039264	0.031564
96	C	0.269619	0.076409	0.029479
97	H	0.26142	0.08999	0.049205
98	C	0.247797	0.483424	0.002318
99	C	0.265692	0.464225	0.330324
100	C	0.24582	0.427083	0.328893
101	C	0.208726	0.40866	0.998126
102	C	0.192526	0.429304	0.002042
103	N	0.21216	0.464712	0.004018
104	H	0.258791	0.413278	0.326066
105	H	0.165909	0.418195	0.004132
106	H	0.33284	0.08785	0.290816
107	C	0.302046	0.480578	0.329273
108	C	0.224581	0.022312	0.061961
109	O	0.315062	0.478344	0.294181
110	O	0.319015	0.982803	0.363203
111	H	0.311725	0.982572	0.39088
112	O	0.200432	0.028621	0.061742
113	O	0.231222	0.511343	0.096546
114	H	0.216499	0.502056	0.119272
115	C	0.409022	0.205339	0.002669
116	C	0.42856	0.236444	0.311192
117	N	0.464067	0.2538	0.312859
118	C	0.483503	0.244211	0.005037
119	C	0.465097	0.213303	0.031564
120	C	0.427952	0.194084	0.029476
121	H	0.414371	0.172304	0.049202
122	C	0.095702	0.300939	0.998126
123	H	0.091084	0.346384	0.326065
124	H	0.086164	0.248584	0.004132
125	H	0.416511	0.245863	0.290812
126	C	0.482048	0.203145	0.061963
127	O	0.52156	0.337085	0.3632
128	H	0.52179	0.330028	0.390876
129	O	0.47574	0.172687	0.061747
130	O	0.993015	0.220756	0.096547
131	H	0.002301	0.215321	0.119275
132	C	0.188682	0.371261	0.330735
133	N	0.152997	0.353897	0.330806
134	C	0.133101	0.318292	0.330735
135	N	0.150465	0.299971	0.330807
136	C	0.186069	0.31568	0.330735
137	N	0.20439	0.351364	0.330807
138	C	0.318166	0.132459	0.334975
139	N	0.353823	0.150907	0.335079
140	C	0.371902	0.186578	0.334969
141	N	0.353455	0.203787	0.335079
142	C	0.317784	0.186195	0.334972
143	N	0.300574	0.150538	0.335082
144	C	0.299021	0.204552	0.336009
145	C	0.267918	0.192987	0.644529
146	N	0.250562	0.211139	0.646195
147	C	0.260151	0.240165	0.33837
148	C	0.291061	0.252668	0.364896
149	C	0.310279	0.234741	0.362812
150	H	0.33206	0.242941	0.382537
151	C	0.239117	0.256564	0.335651
152	C	0.202022	0.238669	0.663659
153	C	0.184752	0.258541	0.662227
154	C	0.203423	0.295634	0.331459
155	C	0.240267	0.311833	0.335377
156	N	0.256042	0.292201	0.337354
157	H	0.157977	0.24557	0.659401
158	H	0.255777	0.338451	0.337467
159	H	0.258499	0.171519	0.624151
160	C	0.182021	0.202315	0.662605
161	C	0.30122	0.279778	0.395295
162	O	0.166772	0.189299	0.627513
163	O	0.167277	0.185346	0.696536
164	H	0.174336	0.192635	0.724213
165	O	0.331679	0.303929	0.395074
166	O	0.28361	0.273136	0.429879
167	H	0.289046	0.287858	0.452604
168	C	0.299811	0.09534	0.336016
169	C	0.311372	0.075801	0.644529
170	N	0.293221	0.040294	0.646195
171	C	0.264195	0.020857	0.33837
172	C	0.251691	0.039264	0.364899
173	C	0.269619	0.076409	0.362812
174	H	0.26142	0.08999	0.382537
175	C	0.247797	0.483424	0.335651
176	C	0.265692	0.464225	0.663659
177	C	0.24582	0.427083	0.662227
178	C	0.208726	0.40866	0.331459
179	C	0.192526	0.429304	0.335377
180	N	0.21216	0.464712	0.337354
181	H	0.258791	0.413278	0.659401
182	H	0.165909	0.418195	0.337464
183	H	0.33284	0.08785	0.624148
184	C	0.302046	0.480578	0.662608
185	C	0.224581	0.022312	0.395295
186	O	0.315062	0.478344	0.627513
187	O	0.319015	0.982803	0.696536
188	H	0.311725	0.982572	0.724213
189	O	0.200432	0.028621	0.395074
190	O	0.231222	0.511343	0.429879
191	H	0.216499	0.502056	0.452604
192	C	0.409022	0.205339	0.336002
193	C	0.42856	0.236444	0.644525
194	N	0.464067	0.2538	0.646191
195	C	0.483503	0.244211	0.33837
196	C	0.465097	0.213303	0.364896
197	C	0.427952	0.194084	0.362809
198	H	0.414371	0.172304	0.382534
199	C	0.095702	0.300939	0.331459
200	H	0.091084	0.346384	0.659397
201	H	0.086164	0.248584	0.337467
202	H	0.416511	0.245863	0.624145
203	C	0.482048	0.203145	0.395295
204	O	0.52156	0.337085	0.696536
205	H	0.52179	0.330028	0.724213
206	O	0.47574	0.172687	0.395081
207	O	0.993015	0.220756	0.429882
208	H	0.002301	0.215321	0.452608
209	C	0.188682	0.371261	0.66407
210	N	0.152997	0.353897	0.66414
211	C	0.133101	0.318292	0.66407
212	N	0.150465	0.299971	0.66414
213	C	0.186069	0.31568	0.66407
214	N	0.20439	0.351364	0.66414
215	C	0.318166	0.132459	0.668308
216	N	0.353823	0.150907	0.668415
217	C	0.371902	0.186578	0.668301
218	N	0.353455	0.203787	0.668412
219	C	0.317784	0.186195	0.668305
220	N	0.300574	0.150538	0.668419
221	C	0.299021	0.204552	0.669342
222	C	0.267918	0.192987	0.977862
223	N	0.250562	0.211139	0.979527
224	C	0.260151	0.240165	0.671707
225	C	0.291061	0.252668	0.698232
226	C	0.310279	0.234741	0.696145
227	H	0.33206	0.242941	0.71587
228	C	0.239117	0.256564	0.668987
229	C	0.202022	0.238669	0.996992
230	C	0.184752	0.258541	0.99556
231	C	0.203423	0.295634	0.664793
232	C	0.240267	0.311833	0.66871
233	N	0.256042	0.292201	0.670686
234	H	0.157977	0.24557	0.992733
235	H	0.255777	0.338451	0.6708
236	H	0.258499	0.171519	0.957484
237	C	0.182021	0.202315	0.995941
238	C	0.30122	0.279778	0.728628
239	O	0.166772	0.189299	0.960846
240	O	0.167277	0.185346	0.029869
241	H	0.174336	0.192635	0.057546
242	O	0.331679	0.303929	0.728411
243	O	0.28361	0.273136	0.763212
244	H	0.289046	0.287858	0.785941
245	C	0.299811	0.09534	0.669348
246	C	0.311372	0.075801	0.977862
247	N	0.293221	0.040294	0.979527
248	C	0.264195	0.020857	0.671707
249	C	0.251691	0.039264	0.698232
250	C	0.269619	0.076409	0.696148
251	H	0.26142	0.08999	0.715874
252	C	0.247797	0.483424	0.668984
253	C	0.265692	0.464225	0.996992
254	C	0.24582	0.427083	0.99556
255	C	0.208726	0.40866	0.664793
256	C	0.192526	0.429304	0.66871
257	N	0.21216	0.464712	0.670686
258	H	0.258791	0.413278	0.992733
259	H	0.165909	0.418195	0.6708
260	H	0.33284	0.08785	0.957484
261	C	0.302046	0.480578	0.995941
262	C	0.224581	0.022312	0.728628
263	O	0.315062	0.478344	0.960849
264	O	0.319015	0.982803	0.029871
265	H	0.311725	0.982572	0.057547
266	O	0.200432	0.028621	0.728411
267	O	0.231222	0.511343	0.763215
268	H	0.216499	0.502056	0.785941
269	C	0.409022	0.205339	0.669335
270	C	0.42856	0.236444	0.977858
271	N	0.464067	0.2538	0.979527
272	C	0.483503	0.244211	0.671703
273	C	0.465097	0.213303	0.698232
274	C	0.427952	0.194084	0.696145
275	H	0.414371	0.172304	0.71587
276	C	0.095702	0.300939	0.664793
277	H	0.091084	0.346384	0.992733
278	H	0.086164	0.248584	0.6708
279	H	0.416511	0.245863	0.957481
280	C	0.482048	0.203145	0.728631
281	O	0.52156	0.337085	0.029868
282	H	0.52179	0.330028	0.057544
283	O	0.47574	0.172687	0.728414
284	O	0.993015	0.220756	0.763215
285	H	0.002301	0.215321	0.785941
286	C	0.18868	0.871258	0.997403
287	N	0.152995	0.853895	0.997473
288	C	0.133102	0.818292	0.997403
289	N	0.150465	0.799969	0.997473
290	C	0.186069	0.81568	0.997403
291	N	0.20439	0.851364	0.997473
292	C	0.318166	0.632459	0.001641
293	N	0.353822	0.650905	0.001747
294	C	0.371902	0.686576	0.001638
295	N	0.353455	0.703787	0.001745
296	C	0.317784	0.686196	0.001641
297	N	0.300574	0.650538	0.00175
298	C	0.299021	0.704551	0.002676
299	C	0.267918	0.692988	0.311195
300	N	0.250562	0.711138	0.312861
301	C	0.260151	0.740164	0.005038
302	C	0.291061	0.752668	0.031564
303	C	0.310279	0.73474	0.029477
304	H	0.33206	0.742941	0.049202
305	C	0.239116	0.756562	0.002318
306	C	0.202022	0.738669	0.330323
307	C	0.184752	0.758539	0.328893
308	C	0.203423	0.795634	0.998126
309	C	0.240268	0.811833	0.002043
310	N	0.256041	0.792199	0.004019
311	H	0.157976	0.745569	0.326066
312	H	0.255777	0.838451	0.004132
313	H	0.258498	0.671518	0.290817
314	C	0.182021	0.702314	0.329272
315	C	0.30122	0.779779	0.06196
316	O	0.166772	0.689298	0.294179
317	O	0.167277	0.685346	0.363203
318	H	0.174336	0.692634	0.39088
319	O	0.331678	0.803927	0.061742
320	O	0.283611	0.773136	0.096546
321	H	0.289047	0.787859	0.119272
322	C	0.299811	0.59534	0.002681
323	C	0.311372	0.5758	0.311195
324	N	0.293221	0.540295	0.31286
325	C	0.264195	0.520857	0.005038
326	C	0.251693	0.539264	0.031564
327	C	0.26962	0.576409	0.029479
328	H	0.261421	0.589991	0.049205
329	C	0.247796	0.983422	0.002318
330	C	0.265691	0.964222	0.330324
331	C	0.245819	0.92708	0.328893
332	C	0.208725	0.908658	0.998126
333	C	0.192526	0.929304	0.002042
334	N	0.212159	0.96471	0.004018
335	H	0.258792	0.913278	0.326066
336	H	0.165909	0.918195	0.004132
337	H	0.33284	0.587851	0.290816
338	C	0.302045	0.980576	0.329273
339	C	0.22458	0.52231	0.061961
340	O	0.315063	0.978344	0.294181
341	O	0.319014	0.482802	0.363203
342	H	0.311726	0.482574	0.39088
343	O	0.200431	0.528619	0.061742
344	O	0.231222	0.011344	0.096546
345	H	0.2165	0.002058	0.119272
346	C	0.409021	0.705337	0.002669
347	C	0.42856	0.736442	0.311192
348	N	0.464068	0.753801	0.312859
349	C	0.483504	0.74421	0.005037
350	C	0.465097	0.713302	0.031564
351	C	0.427953	0.694084	0.029476
352	H	0.41437	0.672302	0.049202
353	C	0.095701	0.800937	0.998126
354	H	0.091085	0.846384	0.326065
355	H	0.086166	0.748584	0.004132
356	H	0.416511	0.745862	0.290812
357	C	0.482049	0.703145	0.061963
358	O	0.521559	0.837085	0.3632
359	H	0.521789	0.830025	0.390876
360	O	0.475739	0.672685	0.061747
361	O	0.993016	0.720755	0.096547
362	H	0.002302	0.715321	0.119275
363	C	0.18868	0.871258	0.330735
364	N	0.152995	0.853895	0.330807
365	C	0.133102	0.818292	0.330735
366	N	0.150465	0.799969	0.330807
367	C	0.186069	0.81568	0.330735
368	N	0.20439	0.851364	0.330807
369	C	0.318166	0.632459	0.334975
370	N	0.353822	0.650905	0.335079
371	C	0.371902	0.686576	0.334969
372	N	0.353455	0.703787	0.335079
373	C	0.317784	0.686196	0.334972
374	N	0.300574	0.650538	0.335082
375	C	0.299021	0.704551	0.336009
376	C	0.267918	0.692988	0.644529
377	N	0.250562	0.711138	0.646195
378	C	0.260151	0.740164	0.33837
379	C	0.291061	0.752668	0.364896
380	C	0.310279	0.73474	0.362812
381	H	0.33206	0.742941	0.382537
382	C	0.239116	0.756562	0.335651
383	C	0.202022	0.738669	0.663659
384	C	0.184752	0.758539	0.662227
385	C	0.203423	0.795634	0.331459
386	C	0.240268	0.811833	0.335377
387	N	0.256041	0.792199	0.337354
388	H	0.157976	0.745569	0.659401
389	H	0.255777	0.838451	0.337467
390	H	0.258498	0.671518	0.624151
391	C	0.182021	0.702314	0.662605
392	C	0.30122	0.779779	0.395295
393	O	0.166772	0.689298	0.627513
394	O	0.167277	0.685346	0.696536
395	H	0.174336	0.692634	0.724213
396	O	0.331678	0.803927	0.395074
397	O	0.283611	0.773136	0.429879
398	H	0.289047	0.787859	0.452604
399	C	0.299811	0.59534	0.336016
400	C	0.311372	0.5758	0.644529
401	N	0.293221	0.540295	0.646195
402	C	0.264195	0.520857	0.33837
403	C	0.251693	0.539264	0.364899
404	C	0.26962	0.576409	0.362812
405	H	0.261421	0.589991	0.382537
406	C	0.247796	0.983422	0.335651
407	C	0.265691	0.964222	0.663659
408	C	0.245819	0.92708	0.662227
409	C	0.208725	0.908658	0.331459
410	C	0.192526	0.929304	0.335377
411	N	0.212159	0.96471	0.337354
412	H	0.258792	0.913278	0.659401
413	H	0.165909	0.918195	0.337464
414	H	0.33284	0.587851	0.624148
415	C	0.302045	0.980576	0.662608
416	C	0.22458	0.52231	0.395295
417	O	0.315063	0.978344	0.627513
418	O	0.319014	0.482802	0.696536
419	H	0.311726	0.482574	0.724213
420	O	0.200431	0.528619	0.395074
421	O	0.231222	0.011344	0.429879
422	H	0.2165	0.002058	0.452604
423	C	0.409021	0.705337	0.336002
424	C	0.42856	0.736442	0.644525
425	N	0.464068	0.753801	0.646191
426	C	0.483504	0.74421	0.33837
427	C	0.465097	0.713302	0.364896
428	C	0.427953	0.694084	0.362809
429	H	0.41437	0.672302	0.382534
430	C	0.095701	0.800937	0.331459
431	H	0.091085	0.846384	0.659397
432	H	0.086166	0.748584	0.337467
433	H	0.416511	0.745862	0.624145
434	C	0.482049	0.703145	0.395295
435	O	0.521559	0.837085	0.696536
436	H	0.521789	0.830025	0.724213
437	O	0.475739	0.672685	0.395081
438	O	0.993016	0.720755	0.429882
439	H	0.002302	0.715321	0.452608
440	C	0.18868	0.871258	0.66407
441	N	0.152995	0.853895	0.66414
442	C	0.133102	0.818292	0.66407
443	N	0.150465	0.799969	0.66414
444	C	0.186069	0.81568	0.66407
445	N	0.20439	0.851364	0.66414
446	C	0.318166	0.632459	0.668308
447	N	0.353822	0.650905	0.668415
448	C	0.371902	0.686576	0.668301
449	N	0.353455	0.703787	0.668412
450	C	0.317784	0.686196	0.668305
451	N	0.300574	0.650538	0.668419
452	C	0.299021	0.704551	0.669342
453	C	0.267918	0.692988	0.977862
454	N	0.250562	0.711138	0.979527
455	C	0.260151	0.740164	0.671707
456	C	0.291061	0.752668	0.698232
457	C	0.310279	0.73474	0.696145
458	H	0.33206	0.742941	0.71587
459	C	0.239116	0.756562	0.668987
460	C	0.202022	0.738669	0.996992
461	C	0.184752	0.758539	0.99556
462	C	0.203423	0.795634	0.664793
463	C	0.240268	0.811833	0.66871
464	N	0.256041	0.792199	0.670686
465	H	0.157976	0.745569	0.992733
466	H	0.255777	0.838451	0.6708
467	H	0.258498	0.671518	0.957484
468	C	0.182021	0.702314	0.995941
469	C	0.30122	0.779779	0.728628
470	O	0.166772	0.689298	0.960846
471	O	0.167277	0.685346	0.029869
472	H	0.174336	0.692634	0.057546
473	O	0.331678	0.803927	0.728411
474	O	0.283611	0.773136	0.763212
475	H	0.289047	0.787859	0.785941
476	C	0.299811	0.59534	0.669348
477	C	0.311372	0.5758	0.977862
478	N	0.293221	0.540295	0.979527
479	C	0.264195	0.520857	0.671707
480	C	0.251693	0.539264	0.698232
481	C	0.26962	0.576409	0.696148
482	H	0.261421	0.589991	0.715874
483	C	0.247796	0.983422	0.668984
484	C	0.265691	0.964222	0.996992
485	C	0.245819	0.92708	0.99556
486	C	0.208725	0.908658	0.664793
487	C	0.192526	0.929304	0.66871
488	N	0.212159	0.96471	0.670686
489	H	0.258792	0.913278	0.992733
490	H	0.165909	0.918195	0.6708
491	H	0.33284	0.587851	0.957484
492	C	0.302045	0.980576	0.995941
493	C	0.22458	0.52231	0.728628
494	O	0.315063	0.978344	0.960849
495	O	0.319014	0.482802	0.029871
496	H	0.311726	0.482574	0.057547
497	O	0.200431	0.528619	0.728411
498	O	0.231222	0.011344	0.763215
499	H	0.2165	0.002058	0.785941
500	C	0.409021	0.705337	0.669335
501	C	0.42856	0.736442	0.977858
502	N	0.464068	0.753801	0.979527
503	C	0.483504	0.74421	0.671703
504	C	0.465097	0.713302	0.698232
505	C	0.427953	0.694084	0.696145
506	H	0.41437	0.672302	0.71587
507	C	0.095701	0.800937	0.664793
508	H	0.091085	0.846384	0.992733
509	H	0.086166	0.748584	0.6708
510	H	0.416511	0.745862	0.957481
511	C	0.482049	0.703145	0.728631
512	O	0.521559	0.837085	0.029868
513	H	0.521789	0.830025	0.057544
514	O	0.475739	0.672685	0.728414
515	O	0.993016	0.720755	0.763215
516	H	0.002302	0.715321	0.785941
517	C	0.68868	0.371261	0.997403
518	N	0.652997	0.353897	0.997473
519	C	0.633101	0.318292	0.997403
520	N	0.650465	0.299971	0.997473
521	C	0.686068	0.31568	0.997403
522	N	0.704389	0.351364	0.997473
523	C	0.818166	0.132459	0.001641
524	N	0.853823	0.150907	0.001747
525	C	0.871902	0.186578	0.001638
526	N	0.853455	0.203787	0.001745
527	C	0.817783	0.186195	0.001641
528	N	0.800574	0.150538	0.00175
529	C	0.799021	0.204552	0.002676
530	C	0.767916	0.192987	0.311195
531	N	0.75056	0.211139	0.312861
532	C	0.76015	0.240165	0.005038
533	C	0.791061	0.252668	0.031564
534	C	0.810278	0.234741	0.029477
535	H	0.832058	0.242941	0.049202
536	C	0.739115	0.256564	0.002318
537	C	0.702021	0.238669	0.330323
538	C	0.684752	0.258541	0.328893
539	C	0.703423	0.295634	0.998126
540	C	0.740266	0.311833	0.002043
541	N	0.756041	0.292201	0.004019
542	H	0.657976	0.24557	0.326066
543	H	0.755776	0.338451	0.004132
544	H	0.758497	0.171519	0.290817
545	C	0.682021	0.202315	0.329272
546	C	0.801219	0.279778	0.06196
547	O	0.666771	0.189299	0.294179
548	O	0.667277	0.185346	0.363203
549	H	0.674335	0.192635	0.39088
550	O	0.831679	0.303929	0.061742
551	O	0.78361	0.273136	0.096546
552	H	0.789045	0.287858	0.119272
553	C	0.799811	0.09534	0.002681
554	C	0.811372	0.075801	0.311195
555	N	0.793221	0.040294	0.31286
556	C	0.764193	0.020857	0.005038
557	C	0.751691	0.039264	0.031564
558	C	0.769619	0.076409	0.029479
559	H	0.76142	0.08999	0.049205
560	C	0.747796	0.483424	0.002318
561	C	0.765691	0.464225	0.330324
562	C	0.745819	0.427083	0.328893
563	C	0.708727	0.40866	0.998126
564	C	0.692527	0.429304	0.002042
565	N	0.712159	0.464712	0.004018
566	H	0.758791	0.413278	0.326066
567	H	0.665907	0.418195	0.004132
568	H	0.83284	0.08785	0.290816
569	C	0.802046	0.480578	0.329273
570	C	0.72458	0.022312	0.061961
571	O	0.815062	0.478344	0.294181
572	O	0.819014	0.982803	0.363203
573	H	0.811724	0.982572	0.39088
574	O	0.700432	0.028621	0.061742
575	O	0.73122	0.511343	0.096546
576	H	0.716498	0.502056	0.119272
577	C	0.90902	0.205339	0.002669
578	C	0.92856	0.236444	0.311192
579	N	0.964067	0.2538	0.312859
580	C	0.983503	0.244211	0.005037
581	C	0.965097	0.213303	0.031564
582	C	0.927952	0.194084	0.029476
583	H	0.914371	0.172304	0.049202
584	C	0.520937	0.265245	0.002317
585	C	0.540137	0.302339	0.330322
586	C	0.57728	0.319611	0.328892
587	C	0.595701	0.300939	0.998126
588	C	0.575055	0.264093	0.002043
589	N	0.539649	0.248321	0.004018
590	H	0.591084	0.346384	0.326065
591	H	0.586164	0.248584	0.004132
592	H	0.916511	0.245863	0.290812
593	C	0.523783	0.322341	0.329271
594	C	0.982048	0.203145	0.061963
595	O	0.526019	0.337591	0.294178
596	O	0.97574	0.172687	0.061747
597	O	0.493015	0.220756	0.096547
598	H	0.502301	0.215321	0.119275
599	C	0.68868	0.371261	0.330735
600	N	0.652997	0.353897	0.330806
601	C	0.633101	0.318292	0.330735
602	N	0.650465	0.299971	0.330807
603	C	0.686068	0.31568	0.330735
604	N	0.704389	0.351364	0.330807
605	C	0.818166	0.132459	0.334975
606	N	0.853823	0.150907	0.335079
607	C	0.871902	0.186578	0.334969
608	N	0.853455	0.203787	0.335079
609	C	0.817783	0.186195	0.334972
610	N	0.800574	0.150538	0.335082
611	C	0.799021	0.204552	0.336009
612	C	0.767916	0.192987	0.644529
613	N	0.75056	0.211139	0.646195
614	C	0.76015	0.240165	0.33837
615	C	0.791061	0.252668	0.364896
616	C	0.810278	0.234741	0.362812
617	H	0.832058	0.242941	0.382537
618	C	0.739115	0.256564	0.335651
619	C	0.702021	0.238669	0.663659
620	C	0.684752	0.258541	0.662227
621	C	0.703423	0.295634	0.331459
622	C	0.740266	0.311833	0.335377
623	N	0.756041	0.292201	0.337354
624	H	0.657976	0.24557	0.659401
625	H	0.755776	0.338451	0.337467
626	H	0.758497	0.171519	0.624151
627	C	0.682021	0.202315	0.662605
628	C	0.801219	0.279778	0.395295
629	O	0.666771	0.189299	0.627513
630	O	0.667277	0.185346	0.696536
631	H	0.674335	0.192635	0.724213
632	O	0.831679	0.303929	0.395074
633	O	0.78361	0.273136	0.429879
634	H	0.789045	0.287858	0.452604
635	C	0.799811	0.09534	0.336016
636	C	0.811372	0.075801	0.644529
637	N	0.793221	0.040294	0.646195
638	C	0.764193	0.020857	0.33837
639	C	0.751691	0.039264	0.364899
640	C	0.769619	0.076409	0.362812
641	H	0.76142	0.08999	0.382537
642	C	0.747796	0.483424	0.335651
643	C	0.765691	0.464225	0.663659
644	C	0.745819	0.427083	0.662227
645	C	0.708727	0.40866	0.331459
646	C	0.692527	0.429304	0.335377
647	N	0.712159	0.464712	0.337354
648	H	0.758791	0.413278	0.659401
649	H	0.665907	0.418195	0.337464
650	H	0.83284	0.08785	0.624148
651	C	0.802046	0.480578	0.662608
652	C	0.72458	0.022312	0.395295
653	O	0.815062	0.478344	0.627513
654	O	0.819014	0.982803	0.696536
655	H	0.811724	0.982572	0.724213
656	O	0.700432	0.028621	0.395074
657	O	0.73122	0.511343	0.429879
658	H	0.716498	0.502056	0.452604
659	C	0.90902	0.205339	0.336002
660	C	0.92856	0.236444	0.644525
661	N	0.964067	0.2538	0.646191
662	C	0.983503	0.244211	0.33837
663	C	0.965097	0.213303	0.364896
664	C	0.927952	0.194084	0.362809
665	H	0.914371	0.172304	0.382534
666	C	0.520937	0.265245	0.335651
667	C	0.540137	0.302339	0.663655
668	C	0.57728	0.319611	0.662227
669	C	0.595701	0.300939	0.331459
670	C	0.575055	0.264093	0.335377
671	N	0.539649	0.248321	0.337354
672	H	0.591084	0.346384	0.659397
673	H	0.586164	0.248584	0.337467
674	H	0.916511	0.245863	0.624145
675	C	0.523783	0.322341	0.662605
676	C	0.982048	0.203145	0.395295
677	O	0.526019	0.337591	0.627513
678	O	0.97574	0.172687	0.395081
679	O	0.493015	0.220756	0.429882
680	H	0.502301	0.215321	0.452608
681	C	0.68868	0.371261	0.66407
682	N	0.652997	0.353897	0.66414
683	C	0.633101	0.318292	0.66407
684	N	0.650465	0.299971	0.66414
685	C	0.686068	0.31568	0.66407
686	N	0.704389	0.351364	0.66414
687	C	0.818166	0.132459	0.668308
688	N	0.853823	0.150907	0.668415
689	C	0.871902	0.186578	0.668301
690	N	0.853455	0.203787	0.668412
691	C	0.817783	0.186195	0.668305
692	N	0.800574	0.150538	0.668419
693	C	0.799021	0.204552	0.669342
694	C	0.767916	0.192987	0.977862
695	N	0.75056	0.211139	0.979527
696	C	0.76015	0.240165	0.671707
697	C	0.791061	0.252668	0.698232
698	C	0.810278	0.234741	0.696145
699	H	0.832058	0.242941	0.71587
700	C	0.739115	0.256564	0.668987
701	C	0.702021	0.238669	0.996992
702	C	0.684752	0.258541	0.99556
703	C	0.703423	0.295634	0.664793
704	C	0.740266	0.311833	0.66871
705	N	0.756041	0.292201	0.670686
706	H	0.657976	0.24557	0.992733
707	H	0.755776	0.338451	0.6708
708	H	0.758497	0.171519	0.957484
709	C	0.682021	0.202315	0.995941
710	C	0.801219	0.279778	0.728628
711	O	0.666771	0.189299	0.960846
712	O	0.667277	0.185346	0.029869
713	H	0.674335	0.192635	0.057546
714	O	0.831679	0.303929	0.728411
715	O	0.78361	0.273136	0.763212
716	H	0.789045	0.287858	0.785941
717	C	0.799811	0.09534	0.669348
718	C	0.811372	0.075801	0.977862
719	N	0.793221	0.040294	0.979527
720	C	0.764193	0.020857	0.671707
721	C	0.751691	0.039264	0.698232
722	C	0.769619	0.076409	0.696148
723	H	0.76142	0.08999	0.715874
724	C	0.747796	0.483424	0.668984
725	C	0.765691	0.464225	0.996992
726	C	0.745819	0.427083	0.99556
727	C	0.708727	0.40866	0.664793
728	C	0.692527	0.429304	0.66871
729	N	0.712159	0.464712	0.670686
730	H	0.758791	0.413278	0.992733
731	H	0.665907	0.418195	0.6708
732	H	0.83284	0.08785	0.957484
733	C	0.802046	0.480578	0.995941
734	C	0.72458	0.022312	0.728628
735	O	0.815062	0.478344	0.960849
736	O	0.819014	0.982803	0.029871
737	H	0.811724	0.982572	0.057547
738	O	0.700432	0.028621	0.728411
739	O	0.73122	0.511343	0.763215
740	H	0.716498	0.502056	0.785941
741	C	0.90902	0.205339	0.669335
742	C	0.92856	0.236444	0.977858
743	N	0.964067	0.2538	0.979527
744	C	0.983503	0.244211	0.671703
745	C	0.965097	0.213303	0.698232
746	C	0.927952	0.194084	0.696145
747	H	0.914371	0.172304	0.71587
748	C	0.520937	0.265245	0.668984
749	C	0.540137	0.302339	0.996988
750	C	0.57728	0.319611	0.99556
751	C	0.595701	0.300939	0.664793
752	C	0.575055	0.264093	0.66871
753	N	0.539649	0.248321	0.670686
754	H	0.591084	0.346384	0.992733
755	H	0.586164	0.248584	0.6708
756	H	0.916511	0.245863	0.957481
757	C	0.523783	0.322341	0.995938
758	C	0.982048	0.203145	0.728631
759	O	0.526019	0.337591	0.960846
760	O	0.97574	0.172687	0.728414
761	O	0.493015	0.220756	0.763215
762	H	0.502301	0.215321	0.785941
763	C	0.68868	0.871258	0.997403
764	N	0.652996	0.853895	0.997473
765	C	0.633101	0.818292	0.997403
766	N	0.650463	0.799969	0.997473
767	C	0.686069	0.81568	0.997403
768	N	0.70439	0.851364	0.997473
769	C	0.818164	0.632459	0.001641
770	N	0.853821	0.650905	0.001747
771	C	0.871902	0.686576	0.001638
772	N	0.853454	0.703787	0.001745
773	C	0.817784	0.686196	0.001641
774	N	0.800573	0.650538	0.00175
775	C	0.79902	0.704551	0.002676
776	C	0.767918	0.692988	0.311195
777	N	0.750561	0.711138	0.312861
778	C	0.76015	0.740164	0.005038
779	C	0.79106	0.752668	0.031564
780	C	0.810279	0.73474	0.029477
781	H	0.83206	0.742941	0.049202
782	C	0.739115	0.756562	0.002318
783	C	0.702023	0.738669	0.330323
784	C	0.684752	0.758539	0.328893
785	C	0.703422	0.795634	0.998126
786	C	0.740267	0.811833	0.002043
787	N	0.756041	0.792199	0.004019
788	H	0.657977	0.745569	0.326066
789	H	0.755777	0.838451	0.004132
790	H	0.758497	0.671518	0.290817
791	C	0.682021	0.702314	0.329272
792	C	0.80122	0.779779	0.06196
793	O	0.666772	0.689298	0.294179
794	O	0.667276	0.685346	0.363203
795	H	0.674336	0.692634	0.39088
796	O	0.831676	0.803927	0.061742
797	O	0.783611	0.773136	0.096546
798	H	0.789046	0.787859	0.119272
799	C	0.79981	0.59534	0.002681
800	C	0.811372	0.5758	0.311195
801	N	0.79322	0.540295	0.31286
802	C	0.764194	0.520857	0.005038
803	C	0.751692	0.539264	0.031564
804	C	0.76962	0.576409	0.029479
805	H	0.761421	0.589991	0.049205
806	C	0.747796	0.983422	0.002318
807	C	0.765691	0.964222	0.330324
808	C	0.745819	0.92708	0.328893
809	C	0.708725	0.908658	0.998126
810	C	0.692526	0.929304	0.002042
811	N	0.712159	0.96471	0.004018
812	H	0.758792	0.913278	0.326066
813	H	0.665909	0.918195	0.004132
814	H	0.832839	0.587851	0.290816
815	C	0.802046	0.980576	0.329273
816	C	0.724581	0.52231	0.061961
817	O	0.815063	0.978344	0.294181
818	O	0.819015	0.482802	0.363203
819	H	0.811726	0.482574	0.39088
820	O	0.70043	0.528619	0.061742
821	O	0.731222	0.011344	0.096546
822	H	0.7165	0.002058	0.119272
823	C	0.90902	0.705337	0.002669
824	C	0.928558	0.736442	0.311192
825	N	0.964066	0.753801	0.312859
826	C	0.983504	0.74421	0.005037
827	C	0.965097	0.713302	0.031564
828	C	0.927953	0.694084	0.029476
829	H	0.914371	0.672302	0.049202
830	C	0.520937	0.765245	0.002317
831	C	0.540137	0.80234	0.330322
832	C	0.577279	0.819609	0.328892
833	C	0.595701	0.800937	0.998126
834	C	0.575056	0.764094	0.002043
835	N	0.539648	0.74832	0.004018
836	H	0.591084	0.846384	0.326065
837	H	0.586164	0.748584	0.004132
838	H	0.916512	0.745862	0.290812
839	C	0.523785	0.822342	0.329271
840	C	0.982049	0.703145	0.061963
841	O	0.526018	0.837591	0.294178
842	O	0.97574	0.672685	0.061747
843	O	0.493015	0.720755	0.096547
844	H	0.502302	0.715321	0.119275
845	C	0.68868	0.871258	0.330735
846	N	0.652996	0.853895	0.330807
847	C	0.633101	0.818292	0.330735
848	N	0.650463	0.799969	0.330807
849	C	0.686069	0.81568	0.330735
850	N	0.70439	0.851364	0.330807
851	C	0.818164	0.632459	0.334975
852	N	0.853821	0.650905	0.335079
853	C	0.871902	0.686576	0.334969
854	N	0.853454	0.703787	0.335079
855	C	0.817784	0.686196	0.334972
856	N	0.800573	0.650538	0.335082
857	C	0.79902	0.704551	0.336009
858	C	0.767918	0.692988	0.644529
859	N	0.750561	0.711138	0.646195
860	C	0.76015	0.740164	0.33837
861	C	0.79106	0.752668	0.364896
862	C	0.810279	0.73474	0.362812
863	H	0.83206	0.742941	0.382537
864	C	0.739115	0.756562	0.335651
865	C	0.702023	0.738669	0.663659
866	C	0.684752	0.758539	0.662227
867	C	0.703422	0.795634	0.331459
868	C	0.740267	0.811833	0.335377
869	N	0.756041	0.792199	0.337354
870	H	0.657977	0.745569	0.659401
871	H	0.755777	0.838451	0.337467
872	H	0.758497	0.671518	0.624151
873	C	0.682021	0.702314	0.662605
874	C	0.80122	0.779779	0.395295
875	O	0.666772	0.689298	0.627513
876	O	0.667276	0.685346	0.696536
877	H	0.674336	0.692634	0.724213
878	O	0.831676	0.803927	0.395074
879	O	0.783611	0.773136	0.429879
880	H	0.789046	0.787859	0.452604
881	C	0.79981	0.59534	0.336016
882	C	0.811372	0.5758	0.644529
883	N	0.79322	0.540295	0.646195
884	C	0.764194	0.520857	0.33837
885	C	0.751692	0.539264	0.364899
886	C	0.76962	0.576409	0.362812
887	H	0.761421	0.589991	0.382537
888	C	0.747796	0.983422	0.335651
889	C	0.765691	0.964222	0.663659
890	C	0.745819	0.92708	0.662227
891	C	0.708725	0.908658	0.331459
892	C	0.692526	0.929304	0.335377
893	N	0.712159	0.96471	0.337354
894	H	0.758792	0.913278	0.659401
895	H	0.665909	0.918195	0.337464
896	H	0.832839	0.587851	0.624148
897	C	0.802046	0.980576	0.662608
898	C	0.724581	0.52231	0.395295
899	O	0.815063	0.978344	0.627513
900	O	0.819015	0.482802	0.696536
901	H	0.811726	0.482574	0.724213
902	O	0.70043	0.528619	0.395074
903	O	0.731222	0.011344	0.429879
904	H	0.7165	0.002058	0.452604
905	C	0.90902	0.705337	0.336002
906	C	0.928558	0.736442	0.644525
907	N	0.964066	0.753801	0.646191
908	C	0.983504	0.74421	0.33837
909	C	0.965097	0.713302	0.364896
910	C	0.927953	0.694084	0.362809
911	H	0.914371	0.672302	0.382534
912	C	0.520937	0.765245	0.335651
913	C	0.540137	0.80234	0.663655
914	C	0.577279	0.819609	0.662227
915	C	0.595701	0.800937	0.331459
916	C	0.575056	0.764094	0.335377
917	N	0.539648	0.74832	0.337354
918	H	0.591084	0.846384	0.659397
919	H	0.586164	0.748584	0.337467
920	H	0.916512	0.745862	0.624145
921	C	0.523785	0.822342	0.662605
922	C	0.982049	0.703145	0.395295
923	O	0.526018	0.837591	0.627513
924	O	0.97574	0.672685	0.395081
925	O	0.493015	0.720755	0.429882
926	H	0.502302	0.715321	0.452608
927	C	0.68868	0.871258	0.66407
928	N	0.652996	0.853895	0.66414
929	C	0.633101	0.818292	0.66407
930	N	0.650463	0.799969	0.66414
931	C	0.686069	0.81568	0.66407
932	N	0.70439	0.851364	0.66414
933	C	0.818164	0.632459	0.668308
934	N	0.853821	0.650905	0.668415
935	C	0.871902	0.686576	0.668301
936	N	0.853454	0.703787	0.668412
937	C	0.817784	0.686196	0.668305
938	N	0.800573	0.650538	0.668419
939	C	0.79902	0.704551	0.669342
940	C	0.767918	0.692988	0.977862
941	N	0.750561	0.711138	0.979527
942	C	0.76015	0.740164	0.671707
943	C	0.79106	0.752668	0.698232
944	C	0.810279	0.73474	0.696145
945	H	0.83206	0.742941	0.71587
946	C	0.739115	0.756562	0.668987
947	C	0.702023	0.738669	0.996992
948	C	0.684752	0.758539	0.99556
949	C	0.703422	0.795634	0.664793
950	C	0.740267	0.811833	0.66871
951	N	0.756041	0.792199	0.670686
952	H	0.657977	0.745569	0.992733
953	H	0.755777	0.838451	0.6708
954	H	0.758497	0.671518	0.957484
955	C	0.682021	0.702314	0.995941
956	C	0.80122	0.779779	0.728628
957	O	0.666772	0.689298	0.960846
958	O	0.667276	0.685346	0.029869
959	H	0.674336	0.692634	0.057546
960	O	0.831676	0.803927	0.728411
961	O	0.783611	0.773136	0.763212
962	H	0.789046	0.787859	0.785941
963	C	0.79981	0.59534	0.669348
964	C	0.811372	0.5758	0.977862
965	N	0.79322	0.540295	0.979527
966	C	0.764194	0.520857	0.671707
967	C	0.751692	0.539264	0.698232
968	C	0.76962	0.576409	0.696148
969	H	0.761421	0.589991	0.715874
970	C	0.747796	0.983422	0.668984
971	C	0.765691	0.964222	0.996992
972	C	0.745819	0.92708	0.99556
973	C	0.708725	0.908658	0.664793
974	C	0.692526	0.929304	0.66871
975	N	0.712159	0.96471	0.670686
976	H	0.758792	0.913278	0.992733
977	H	0.665909	0.918195	0.6708
978	H	0.832839	0.587851	0.957484
979	C	0.802046	0.980576	0.995941
980	C	0.724581	0.52231	0.728628
981	O	0.815063	0.978344	0.960849
982	O	0.819015	0.482802	0.029871
983	H	0.811726	0.482574	0.057547
984	O	0.70043	0.528619	0.728411
985	O	0.731222	0.011344	0.763215
986	H	0.7165	0.002058	0.785941
987	C	0.90902	0.705337	0.669335
988	C	0.928558	0.736442	0.977858
989	N	0.964066	0.753801	0.979527
990	C	0.983504	0.74421	0.671703
991	C	0.965097	0.713302	0.698232
992	C	0.927953	0.694084	0.696145
993	H	0.914371	0.672302	0.71587
994	C	0.520937	0.765245	0.668984
995	C	0.540137	0.80234	0.996988
996	C	0.577279	0.819609	0.99556
997	C	0.595701	0.800937	0.664793
998	C	0.575056	0.764094	0.66871
999	N	0.539648	0.74832	0.670686
1000	H	0.591084	0.846384	0.992733
1001	H	0.586164	0.748584	0.6708
1002	H	0.916512	0.745862	0.957481
1003	C	0.523785	0.822342	0.995938
1004	C	0.982049	0.703145	0.728631
1005	O	0.526018	0.837591	0.960846
1006	O	0.97574	0.672685	0.728414
1007	O	0.493015	0.720755	0.763215
1008	H	0.502302	0.715321	0.785941
