data_C504H432N72_2018-02-15_10:45:46
#******************************************
#
# CIF file created by Zeo++
# Zeo++ is an open source package to
# analyze microporous materials
#
#*******************************************

_cell_length_a		45.9062   
_cell_length_b		45.906   
_cell_length_c		29.2772   
_cell_angle_alpha		90   
_cell_angle_beta		90   
_cell_angle_gamma		120   

_symmetry_space_group_name_H-M		'P1'
_symmetry_Int_Tables_number		1
_symmetry_cell_setting		Monoclinic

loop_
_symmetry_equiv_pos_as_xyz
'+x,+y,+z'

loop_
_atom_site_label
_atom_site_type_symbol
_atom_site_fract_x
_atom_site_fract_y
_atom_site_fract_z
1	C	0.208842	0.33377	0.027287
2	C	0.21979	0.368721	0.027257
3	C	0.197086	0.381242	0.027285
4	C	0.162135	0.357241	0.027257
5	C	0.149613	0.322013	0.027288
6	C	0.173617	0.311066	0.027259
7	H	0.145306	0.365695	0.027156
8	H	0.165162	0.285782	0.027158
9	H	0.245074	0.385551	0.027156
10	C	0.20807	0.416244	0.027236
11	C	0.114612	0.297997	0.027241
12	C	0.232858	0.322786	0.027238
13	H	0.257823	0.340577	0.026102
14	H	0.107439	0.273034	0.026108
15	H	0.19028	0.423417	0.026098
16	H	0.273174	0.16973	0.029646
17	C	0.276704	0.234616	0.364064
18	C	0.276836	0.288338	0.359064
19	C	0.241561	0.272234	0.030406
20	C	0.223393	0.236537	0.036063
21	C	0.240936	0.217795	0.037056
22	C	0.18587	0.218871	0.04097
23	H	0.174893	0.234975	0.037318
24	H	0.178686	0.207363	0.074743
25	H	0.174191	0.199415	0.014837
26	C	0.222692	0.18075	0.045595
27	H	0.234261	0.175135	0.074279
28	H	0.223699	0.167797	0.014942
29	H	0.196267	0.169733	0.054393
30	N	0.224898	0.290033	0.029955
31	C	0.26092	0.030037	0.359033
32	C	0.24252	0.49467	0.359057
33	C	0.258621	0.475498	0.030405
34	C	0.294319	0.493027	0.036071
35	H	0.217033	0.483021	0.354897
36	H	0.247916	0.042621	0.354811
37	N	0.240822	0.441035	0.029955
38	C	0.036188	0.254021	0.359081
39	C	0.055359	0.289294	0.030417
40	C	0.037829	0.307462	0.036085
41	H	0.047837	0.240184	0.35489
42	C	0.057685	0.344984	0.040997
43	H	0.084767	0.355963	0.037337
44	H	0.053366	0.352165	0.074775
45	H	0.049904	0.356665	0.014873
46	N	0.089821	0.305958	0.029961
47	C	0.208842	0.33377	0.360621
48	C	0.21979	0.368721	0.360591
49	C	0.197086	0.381242	0.360618
50	C	0.162135	0.357241	0.360591
51	C	0.149613	0.322013	0.360621
52	C	0.173617	0.311066	0.360594
53	H	0.145306	0.365695	0.360488
54	H	0.165162	0.285782	0.360492
55	H	0.245074	0.385551	0.360492
56	C	0.20807	0.416244	0.36057
57	C	0.114612	0.297997	0.360574
58	C	0.232858	0.322786	0.360574
59	H	0.257823	0.340577	0.359436
60	H	0.107439	0.273034	0.359443
61	H	0.19028	0.423417	0.359433
62	H	0.273174	0.16973	0.362978
63	C	0.276704	0.234616	0.697398
64	C	0.276836	0.288338	0.692398
65	C	0.241561	0.272234	0.36374
66	C	0.223393	0.236537	0.369396
67	C	0.240936	0.217795	0.37039
68	C	0.18587	0.218871	0.374304
69	H	0.174893	0.234975	0.370653
70	H	0.178686	0.207363	0.408078
71	H	0.174191	0.199415	0.348171
72	C	0.222692	0.18075	0.378929
73	H	0.234261	0.175135	0.407614
74	H	0.223699	0.167797	0.348277
75	H	0.196267	0.169733	0.387728
76	N	0.224898	0.290033	0.363289
77	C	0.26092	0.030037	0.692367
78	C	0.24252	0.49467	0.692391
79	C	0.258621	0.475498	0.36374
80	C	0.294319	0.493027	0.369403
81	H	0.217033	0.483021	0.688231
82	H	0.247916	0.042621	0.688145
83	N	0.240822	0.441035	0.363289
84	C	0.036188	0.254021	0.692415
85	C	0.055359	0.289294	0.36375
86	C	0.037829	0.307462	0.369417
87	H	0.047837	0.240184	0.688221
88	C	0.057685	0.344984	0.374332
89	H	0.084767	0.355963	0.37067
90	H	0.053366	0.352165	0.408109
91	H	0.049904	0.356665	0.348206
92	N	0.089821	0.305958	0.363296
93	C	0.208842	0.33377	0.693955
94	C	0.21979	0.368721	0.693925
95	C	0.197086	0.381242	0.693952
96	C	0.162135	0.357241	0.693925
97	C	0.149613	0.322013	0.693955
98	C	0.173617	0.311066	0.693928
99	H	0.145306	0.365695	0.693822
100	H	0.165162	0.285782	0.693826
101	H	0.245074	0.385551	0.693822
102	C	0.20807	0.416244	0.693904
103	C	0.114612	0.297997	0.693908
104	C	0.232858	0.322786	0.693908
105	H	0.257823	0.340577	0.69277
106	H	0.107439	0.273034	0.692777
107	H	0.19028	0.423417	0.692767
108	H	0.273174	0.16973	0.696312
109	C	0.276704	0.234616	0.030732
110	C	0.276836	0.288338	0.025731
111	C	0.241561	0.272234	0.697074
112	C	0.223393	0.236537	0.70273
113	C	0.240936	0.217795	0.703724
114	C	0.18587	0.218871	0.707638
115	H	0.174893	0.234975	0.703987
116	H	0.178686	0.207363	0.741409
117	H	0.174191	0.199415	0.681505
118	C	0.222692	0.18075	0.712263
119	H	0.234261	0.175135	0.740948
120	H	0.223699	0.167797	0.681611
121	H	0.196267	0.169733	0.721062
122	N	0.224898	0.290033	0.696623
123	C	0.26092	0.030037	0.0257
124	C	0.24252	0.49467	0.025723
125	C	0.258621	0.475498	0.697074
126	C	0.294319	0.493027	0.702737
127	H	0.217033	0.483021	0.021564
128	H	0.247916	0.042621	0.021476
129	N	0.240822	0.441035	0.696623
130	C	0.036188	0.254021	0.025748
131	C	0.055359	0.289294	0.697084
132	C	0.037829	0.307462	0.702751
133	H	0.047837	0.240184	0.021555
134	C	0.057685	0.344984	0.707666
135	H	0.084767	0.355963	0.704004
136	H	0.053366	0.352165	0.741443
137	H	0.049904	0.356665	0.68154
138	N	0.089821	0.305958	0.69663
139	C	0.208842	0.83377	0.027287
140	C	0.219789	0.868721	0.027257
141	C	0.197086	0.881242	0.027285
142	C	0.162135	0.857238	0.027257
143	C	0.149613	0.822013	0.027288
144	C	0.173617	0.811066	0.027259
145	H	0.145305	0.865695	0.027156
146	H	0.165162	0.785782	0.027158
147	H	0.245074	0.885551	0.027156
148	C	0.208071	0.916243	0.027236
149	C	0.114612	0.797997	0.027241
150	C	0.232858	0.822785	0.027238
151	H	0.257822	0.840574	0.026102
152	H	0.10744	0.773034	0.026108
153	H	0.190281	0.923417	0.026098
154	H	0.273175	0.669731	0.029646
155	C	0.276703	0.734615	0.364064
156	C	0.276834	0.788335	0.359064
157	C	0.241561	0.772234	0.030406
158	C	0.223392	0.736536	0.036063
159	C	0.240936	0.717794	0.037056
160	C	0.18587	0.718871	0.04097
161	H	0.174892	0.734974	0.037318
162	H	0.178685	0.707361	0.074743
163	H	0.174191	0.699415	0.014837
164	C	0.222691	0.680748	0.045595
165	H	0.23426	0.675134	0.074279
166	H	0.223699	0.667797	0.014942
167	H	0.196268	0.669734	0.054393
168	N	0.224898	0.790033	0.029955
169	C	0.26092	0.530036	0.359033
170	C	0.24252	0.99467	0.359057
171	C	0.258621	0.975498	0.030405
172	C	0.294319	0.993027	0.036071
173	H	0.217034	0.983021	0.354897
174	H	0.247915	0.54262	0.354811
175	N	0.240821	0.941035	0.029955
176	C	0.036188	0.754021	0.359081
177	C	0.055358	0.789293	0.030417
178	C	0.037829	0.807462	0.036085
179	H	0.047835	0.740184	0.35489
180	C	0.057685	0.844983	0.040997
181	H	0.084767	0.855963	0.037337
182	H	0.053366	0.852165	0.074775
183	H	0.049904	0.856665	0.014873
184	N	0.089821	0.805958	0.029961
185	C	0.208842	0.83377	0.360621
186	C	0.219789	0.868721	0.360591
187	C	0.197086	0.881242	0.360618
188	C	0.162135	0.857238	0.360591
189	C	0.149613	0.822013	0.360621
190	C	0.173617	0.811066	0.360594
191	H	0.145305	0.865695	0.360488
192	H	0.165162	0.785782	0.360492
193	H	0.245074	0.885551	0.360492
194	C	0.208071	0.916243	0.36057
195	C	0.114612	0.797997	0.360574
196	C	0.232858	0.822785	0.360574
197	H	0.257822	0.840574	0.359436
198	H	0.10744	0.773034	0.359443
199	H	0.190281	0.923417	0.359433
200	H	0.273175	0.669731	0.362978
201	C	0.276703	0.734615	0.697398
202	C	0.276834	0.788335	0.692398
203	C	0.241561	0.772234	0.36374
204	C	0.223392	0.736536	0.369396
205	C	0.240936	0.717794	0.37039
206	C	0.18587	0.718871	0.374304
207	H	0.174892	0.734974	0.370653
208	H	0.178685	0.707361	0.408078
209	H	0.174191	0.699415	0.348171
210	C	0.222691	0.680748	0.378929
211	H	0.23426	0.675134	0.407614
212	H	0.223699	0.667797	0.348277
213	H	0.196268	0.669734	0.387728
214	N	0.224898	0.790033	0.363289
215	C	0.26092	0.530036	0.692367
216	C	0.24252	0.99467	0.692391
217	C	0.258621	0.975498	0.36374
218	C	0.294319	0.993027	0.369403
219	H	0.217034	0.983021	0.688231
220	H	0.247915	0.54262	0.688145
221	N	0.240821	0.941035	0.363289
222	C	0.036188	0.754021	0.692415
223	C	0.055358	0.789293	0.36375
224	C	0.037829	0.807462	0.369417
225	H	0.047835	0.740184	0.688221
226	C	0.057685	0.844983	0.374332
227	H	0.084767	0.855963	0.37067
228	H	0.053366	0.852165	0.408109
229	H	0.049904	0.856665	0.348206
230	N	0.089821	0.805958	0.363296
231	C	0.208842	0.83377	0.693955
232	C	0.219789	0.868721	0.693925
233	C	0.197086	0.881242	0.693952
234	C	0.162135	0.857238	0.693925
235	C	0.149613	0.822013	0.693955
236	C	0.173617	0.811066	0.693928
237	H	0.145305	0.865695	0.693822
238	H	0.165162	0.785782	0.693826
239	H	0.245074	0.885551	0.693822
240	C	0.208071	0.916243	0.693904
241	C	0.114612	0.797997	0.693908
242	C	0.232858	0.822785	0.693908
243	H	0.257822	0.840574	0.69277
244	H	0.10744	0.773034	0.692777
245	H	0.190281	0.923417	0.692767
246	H	0.273175	0.669731	0.696312
247	C	0.276703	0.734615	0.030732
248	C	0.276834	0.788335	0.025731
249	C	0.241561	0.772234	0.697074
250	C	0.223392	0.736536	0.70273
251	C	0.240936	0.717794	0.703724
252	C	0.18587	0.718871	0.707638
253	H	0.174892	0.734974	0.703987
254	H	0.178685	0.707361	0.741409
255	H	0.174191	0.699415	0.681505
256	C	0.222691	0.680748	0.712263
257	H	0.23426	0.675134	0.740948
258	H	0.223699	0.667797	0.681611
259	H	0.196268	0.669734	0.721062
260	N	0.224898	0.790033	0.696623
261	C	0.26092	0.530036	0.0257
262	C	0.24252	0.99467	0.025723
263	C	0.258621	0.975498	0.697074
264	C	0.294319	0.993027	0.702737
265	H	0.217034	0.983021	0.021564
266	H	0.247915	0.54262	0.021476
267	N	0.240821	0.941035	0.696623
268	C	0.036188	0.754021	0.025748
269	C	0.055358	0.789293	0.697084
270	C	0.037829	0.807462	0.702751
271	H	0.047835	0.740184	0.021555
272	C	0.057685	0.844983	0.707666
273	H	0.084767	0.855963	0.704004
274	H	0.053366	0.852165	0.741443
275	H	0.049904	0.856665	0.68154
276	N	0.089821	0.805958	0.69663
277	C	0.324209	0.18541	0.028631
278	C	0.318711	0.152024	0.02857
279	C	0.345448	0.14497	0.028633
280	C	0.378834	0.172859	0.028575
281	C	0.385888	0.20665	0.028627
282	C	0.358	0.212148	0.028572
283	H	0.398633	0.168479	0.028861
284	H	0.362379	0.236324	0.028855
285	H	0.294535	0.132226	0.028859
286	C	0.340111	0.111676	0.029431
287	C	0.419181	0.234607	0.029428
288	C	0.296251	0.190747	0.029426
289	H	0.421244	0.257683	0.029643
290	H	0.361128	0.109615	0.029648
291	C	0.293802	0.269938	0.359047
292	H	0.290675	0.313826	0.35491
293	H	0.319391	0.282942	0.354825
294	N	0.297517	0.221092	0.362398
295	C	0.296241	0.048259	0.364058
296	C	0.313061	0.029313	0.037064
297	C	0.311984	0.473171	0.040987
298	H	0.29588	0.446088	0.037329
299	H	0.323484	0.47749	0.074765
300	H	0.331445	0.480949	0.014863
301	C	0.350104	0.048113	0.04562
302	H	0.355712	0.065298	0.0743
303	H	0.363065	0.062071	0.01497
304	H	0.361118	0.032705	0.054433
305	N	0.309765	0.082596	0.362394
306	N	0.448261	0.23334	0.362394
307	C	0.324209	0.18541	0.361964
308	C	0.318711	0.152024	0.361906
309	C	0.345448	0.14497	0.361967
310	C	0.378834	0.172859	0.361909
311	C	0.385888	0.20665	0.36196
312	C	0.358	0.212148	0.361906
313	H	0.398633	0.168479	0.362196
314	H	0.362379	0.236324	0.362189
315	H	0.294535	0.132226	0.362193
316	C	0.340111	0.111676	0.362766
317	C	0.419181	0.234607	0.362763
318	C	0.296251	0.190747	0.36276
319	H	0.421244	0.257683	0.362978
320	H	0.361128	0.109615	0.362982
321	C	0.293802	0.269938	0.692381
322	H	0.290675	0.313826	0.688241
323	H	0.319391	0.282942	0.688159
324	N	0.297517	0.221092	0.695732
325	C	0.296241	0.048259	0.697392
326	C	0.313061	0.029313	0.370397
327	C	0.311984	0.473171	0.374321
328	H	0.29588	0.446088	0.370663
329	H	0.323484	0.47749	0.408099
330	H	0.331445	0.480949	0.348195
331	C	0.350104	0.048113	0.378953
332	H	0.355712	0.065298	0.407634
333	H	0.363065	0.062071	0.348305
334	H	0.361118	0.032705	0.387765
335	N	0.309765	0.082596	0.695728
336	N	0.448261	0.23334	0.695728
337	C	0.324209	0.18541	0.695298
338	C	0.318711	0.152024	0.69524
339	C	0.345448	0.14497	0.695301
340	C	0.378834	0.172859	0.695243
341	C	0.385888	0.20665	0.695294
342	C	0.358	0.212148	0.69524
343	H	0.398633	0.168479	0.695527
344	H	0.362379	0.236324	0.695523
345	H	0.294535	0.132226	0.695527
346	C	0.340111	0.111676	0.696097
347	C	0.419181	0.234607	0.696097
348	C	0.296251	0.190747	0.696094
349	H	0.421244	0.257683	0.696309
350	H	0.361128	0.109615	0.696316
351	C	0.293802	0.269938	0.025712
352	H	0.290675	0.313826	0.021575
353	H	0.319391	0.282942	0.02149
354	N	0.297517	0.221092	0.029063
355	C	0.296241	0.048259	0.030723
356	C	0.313061	0.029313	0.703731
357	C	0.311984	0.473171	0.707655
358	H	0.29588	0.446088	0.703997
359	H	0.323484	0.47749	0.741433
360	H	0.331445	0.480949	0.681529
361	C	0.350104	0.048113	0.712287
362	H	0.355712	0.065298	0.740968
363	H	0.363065	0.062071	0.681639
364	H	0.361118	0.032705	0.721099
365	N	0.309765	0.082596	0.029059
366	N	0.448261	0.23334	0.029062
367	C	0.324208	0.685409	0.028631
368	C	0.31871	0.652023	0.02857
369	C	0.345449	0.64497	0.028633
370	C	0.378834	0.672858	0.028575
371	C	0.385888	0.706649	0.028627
372	C	0.358	0.712148	0.028572
373	H	0.398631	0.668478	0.028861
374	H	0.362378	0.736323	0.028855
375	H	0.294533	0.632225	0.028859
376	C	0.340112	0.611677	0.029431
377	C	0.419182	0.734607	0.029428
378	C	0.296252	0.690747	0.029426
379	H	0.421243	0.757683	0.029643
380	H	0.361127	0.609614	0.029648
381	C	0.293802	0.769938	0.359047
382	H	0.290673	0.813823	0.35491
383	H	0.319391	0.782942	0.354825
384	N	0.297517	0.721092	0.362398
385	C	0.296241	0.54826	0.364058
386	C	0.31306	0.529311	0.037064
387	C	0.311983	0.973168	0.040987
388	H	0.29588	0.946088	0.037329
389	H	0.323484	0.97749	0.074765
390	H	0.331445	0.980948	0.014863
391	C	0.350104	0.548114	0.04562
392	H	0.355712	0.565299	0.0743
393	H	0.363065	0.562071	0.01497
394	H	0.361117	0.532705	0.054433
395	N	0.309766	0.582597	0.362394
396	N	0.448261	0.733339	0.362394
397	C	0.324208	0.685409	0.361964
398	C	0.31871	0.652023	0.361906
399	C	0.345449	0.64497	0.361967
400	C	0.378834	0.672858	0.361909
401	C	0.385888	0.706649	0.36196
402	C	0.358	0.712148	0.361906
403	H	0.398631	0.668478	0.362196
404	H	0.362378	0.736323	0.362189
405	H	0.294533	0.632225	0.362193
406	C	0.340112	0.611677	0.362766
407	C	0.419182	0.734607	0.362763
408	C	0.296252	0.690747	0.36276
409	H	0.421243	0.757683	0.362978
410	H	0.361127	0.609614	0.362982
411	C	0.293802	0.769938	0.692381
412	H	0.290673	0.813823	0.688241
413	H	0.319391	0.782942	0.688159
414	N	0.297517	0.721092	0.695732
415	C	0.296241	0.54826	0.697392
416	C	0.31306	0.529311	0.370397
417	C	0.311983	0.973168	0.374321
418	H	0.29588	0.946088	0.370663
419	H	0.323484	0.97749	0.408099
420	H	0.331445	0.980948	0.348195
421	C	0.350104	0.548114	0.378953
422	H	0.355712	0.565299	0.407634
423	H	0.363065	0.562071	0.348305
424	H	0.361117	0.532705	0.387765
425	N	0.309766	0.582597	0.695728
426	N	0.448261	0.733339	0.695728
427	C	0.324208	0.685409	0.695298
428	C	0.31871	0.652023	0.69524
429	C	0.345449	0.64497	0.695301
430	C	0.378834	0.672858	0.695243
431	C	0.385888	0.706649	0.695294
432	C	0.358	0.712148	0.69524
433	H	0.398631	0.668478	0.695527
434	H	0.362378	0.736323	0.695523
435	H	0.294533	0.632225	0.695527
436	C	0.340112	0.611677	0.696097
437	C	0.419182	0.734607	0.696097
438	C	0.296252	0.690747	0.696094
439	H	0.421243	0.757683	0.696309
440	H	0.361127	0.609614	0.696316
441	C	0.293802	0.769938	0.025712
442	H	0.290673	0.813823	0.021575
443	H	0.319391	0.782942	0.02149
444	N	0.297517	0.721092	0.029063
445	C	0.296241	0.54826	0.030723
446	C	0.31306	0.529311	0.703731
447	C	0.311983	0.973168	0.707655
448	H	0.29588	0.946088	0.703997
449	H	0.323484	0.97749	0.741433
450	H	0.331445	0.980948	0.681529
451	C	0.350104	0.548114	0.712287
452	H	0.355712	0.565299	0.740968
453	H	0.363065	0.562071	0.681639
454	H	0.361117	0.532705	0.721099
455	N	0.309766	0.582597	0.029059
456	N	0.448261	0.733339	0.029062
457	C	0.482598	0.254152	0.364068
458	C	0.500821	0.237054	0.35905
459	H	0.488237	0.211467	0.354801
460	C	0.501544	0.289917	0.03708
461	C	0.482744	0.308161	0.045633
462	H	0.465554	0.296581	0.074308
463	H	0.468791	0.307168	0.01498
464	H	0.498152	0.334583	0.054452
465	C	0.482598	0.254152	0.697402
466	C	0.500821	0.237054	0.692381
467	H	0.488237	0.211467	0.688135
468	C	0.501544	0.289917	0.370414
469	C	0.482744	0.308161	0.378967
470	H	0.465554	0.296581	0.407641
471	H	0.468791	0.307168	0.348315
472	H	0.498152	0.334583	0.387786
473	C	0.482598	0.254152	0.030733
474	C	0.500821	0.237054	0.025715
475	H	0.488237	0.211467	0.021467
476	C	0.501544	0.289917	0.703748
477	C	0.482744	0.308161	0.712301
478	H	0.465554	0.296581	0.740975
479	H	0.468791	0.307168	0.681649
480	H	0.498152	0.334583	0.72112
481	C	0.482598	0.754151	0.364068
482	C	0.50082	0.737052	0.35905
483	H	0.488237	0.711466	0.354801
484	C	0.501544	0.789917	0.03708
485	C	0.482744	0.808161	0.045633
486	H	0.465554	0.79658	0.074308
487	H	0.46879	0.807168	0.01498
488	H	0.49815	0.83458	0.054452
489	C	0.482598	0.754151	0.697402
490	C	0.50082	0.737052	0.692381
491	H	0.488237	0.711466	0.688135
492	C	0.501544	0.789917	0.370414
493	C	0.482744	0.808161	0.378967
494	H	0.465554	0.79658	0.407641
495	H	0.46879	0.807168	0.348315
496	H	0.49815	0.83458	0.387786
497	C	0.482598	0.754151	0.030733
498	C	0.50082	0.737052	0.025715
499	H	0.488237	0.711466	0.021467
500	C	0.501544	0.789917	0.703748
501	C	0.482744	0.808161	0.712301
502	H	0.465554	0.79658	0.740975
503	H	0.46879	0.807168	0.681649
504	H	0.49815	0.83458	0.72112
505	C	0.536188	0.254021	0.359081
506	C	0.555358	0.289294	0.030417
507	C	0.537829	0.307462	0.036085
508	H	0.547836	0.240184	0.35489
509	C	0.557685	0.344984	0.040997
510	H	0.584767	0.355963	0.037337
511	H	0.553366	0.352165	0.074775
512	H	0.549905	0.356665	0.014873
513	C	0.536188	0.254021	0.692415
514	C	0.555358	0.289294	0.36375
515	C	0.537829	0.307462	0.369417
516	H	0.547836	0.240184	0.688221
517	C	0.557685	0.344984	0.374332
518	H	0.584767	0.355963	0.37067
519	H	0.553366	0.352165	0.408109
520	H	0.549905	0.356665	0.348206
521	C	0.536188	0.254021	0.025748
522	C	0.555358	0.289294	0.697084
523	C	0.537829	0.307462	0.702751
524	H	0.547836	0.240184	0.021555
525	C	0.557685	0.344984	0.707666
526	H	0.584767	0.355963	0.704004
527	H	0.553366	0.352165	0.741443
528	H	0.549905	0.356665	0.68154
529	C	0.536188	0.754021	0.359081
530	C	0.555359	0.789293	0.030417
531	C	0.537829	0.807462	0.036085
532	H	0.547836	0.740184	0.35489
533	C	0.557685	0.844983	0.040997
534	H	0.584767	0.855963	0.037337
535	H	0.553366	0.852165	0.074775
536	H	0.549904	0.856665	0.014873
537	C	0.536188	0.754021	0.692415
538	C	0.555359	0.789293	0.36375
539	C	0.537829	0.807462	0.369417
540	H	0.547836	0.740184	0.688221
541	C	0.557685	0.844983	0.374332
542	H	0.584767	0.855963	0.37067
543	H	0.553366	0.852165	0.408109
544	H	0.549904	0.856665	0.348206
545	C	0.536188	0.754021	0.025748
546	C	0.555359	0.789293	0.697084
547	C	0.537829	0.807462	0.702751
548	H	0.547836	0.740184	0.021555
549	C	0.557685	0.844983	0.707666
550	H	0.584767	0.855963	0.704004
551	H	0.553366	0.852165	0.741443
552	H	0.549904	0.856665	0.68154
553	C	0.708842	0.33377	0.027287
554	C	0.719791	0.368721	0.027257
555	C	0.697086	0.381242	0.027285
556	C	0.662136	0.357241	0.027257
557	C	0.649613	0.322013	0.027288
558	C	0.673617	0.311066	0.027259
559	H	0.645305	0.365695	0.027156
560	H	0.665162	0.285782	0.027158
561	H	0.745075	0.385551	0.027156
562	C	0.708071	0.416244	0.027236
563	C	0.614612	0.297997	0.027241
564	C	0.732857	0.322786	0.027238
565	H	0.757823	0.340577	0.026102
566	H	0.607438	0.273034	0.026108
567	H	0.690279	0.423417	0.026098
568	C	0.824207	0.18541	0.028631
569	C	0.818711	0.152024	0.02857
570	C	0.845448	0.14497	0.028633
571	C	0.878834	0.172859	0.028575
572	C	0.885888	0.20665	0.028627
573	C	0.858	0.212148	0.028572
574	H	0.898633	0.168479	0.028861
575	H	0.862379	0.236324	0.028855
576	H	0.794535	0.132226	0.028859
577	C	0.840111	0.111676	0.029431
578	C	0.919181	0.234607	0.029428
579	C	0.796252	0.190747	0.029426
580	H	0.773175	0.16973	0.029646
581	H	0.921244	0.257683	0.029643
582	H	0.861128	0.109615	0.029648
583	C	0.776704	0.234616	0.364064
584	C	0.793803	0.269938	0.359047
585	C	0.776834	0.288338	0.359064
586	C	0.741562	0.272234	0.030406
587	C	0.723393	0.236537	0.036063
588	H	0.790674	0.313826	0.35491
589	H	0.819392	0.282942	0.354825
590	C	0.740936	0.217795	0.037056
591	C	0.685871	0.218871	0.04097
592	H	0.674893	0.234975	0.037318
593	H	0.678686	0.207363	0.074743
594	H	0.674191	0.199415	0.014837
595	C	0.722692	0.18075	0.045595
596	H	0.73426	0.175135	0.074279
597	H	0.723698	0.167797	0.014942
598	H	0.696267	0.169733	0.054393
599	N	0.797516	0.221092	0.362398
600	N	0.724898	0.290033	0.029955
601	C	0.796241	0.048259	0.364058
602	C	0.76092	0.030037	0.359033
603	C	0.74252	0.49467	0.359057
604	C	0.758621	0.475498	0.030405
605	C	0.794319	0.493027	0.036071
606	H	0.717034	0.483021	0.354897
607	H	0.747916	0.042621	0.354811
608	C	0.813061	0.029313	0.037064
609	C	0.811984	0.473171	0.040987
610	H	0.795881	0.446088	0.037329
611	H	0.823484	0.47749	0.074765
612	H	0.831446	0.480949	0.014863
613	C	0.850104	0.048113	0.04562
614	H	0.855712	0.065298	0.0743
615	H	0.863065	0.062071	0.01497
616	H	0.861116	0.032705	0.054433
617	N	0.809765	0.082596	0.362394
618	N	0.740821	0.441035	0.029955
619	C	0.982598	0.254152	0.364068
620	C	0.000821	0.237054	0.35905
621	H	0.988237	0.211467	0.354801
622	C	0.001544	0.289917	0.03708
623	C	0.982744	0.308161	0.045633
624	H	0.965554	0.296581	0.074308
625	H	0.968791	0.307168	0.01498
626	H	0.998152	0.334583	0.054452
627	N	0.948261	0.23334	0.362394
628	N	0.589821	0.305958	0.029961
629	C	0.708842	0.33377	0.360621
630	C	0.719791	0.368721	0.360591
631	C	0.697086	0.381242	0.360618
632	C	0.662136	0.357241	0.360591
633	C	0.649613	0.322013	0.360621
634	C	0.673617	0.311066	0.360594
635	H	0.645305	0.365695	0.360488
636	H	0.665162	0.285782	0.360492
637	H	0.745075	0.385551	0.360492
638	C	0.708071	0.416244	0.36057
639	C	0.614612	0.297997	0.360574
640	C	0.732857	0.322786	0.360574
641	H	0.757823	0.340577	0.359436
642	H	0.607438	0.273034	0.359443
643	H	0.690279	0.423417	0.359433
644	C	0.824207	0.18541	0.361964
645	C	0.818711	0.152024	0.361906
646	C	0.845448	0.14497	0.361967
647	C	0.878834	0.172859	0.361909
648	C	0.885888	0.20665	0.36196
649	C	0.858	0.212148	0.361906
650	H	0.898633	0.168479	0.362196
651	H	0.862379	0.236324	0.362189
652	H	0.794535	0.132226	0.362193
653	C	0.840111	0.111676	0.362766
654	C	0.919181	0.234607	0.362763
655	C	0.796252	0.190747	0.36276
656	H	0.773175	0.16973	0.362978
657	H	0.921244	0.257683	0.362978
658	H	0.861128	0.109615	0.362982
659	C	0.776704	0.234616	0.697398
660	C	0.793803	0.269938	0.692381
661	C	0.776834	0.288338	0.692398
662	C	0.741562	0.272234	0.36374
663	C	0.723393	0.236537	0.369396
664	H	0.790674	0.313826	0.688241
665	H	0.819392	0.282942	0.688159
666	C	0.740936	0.217795	0.37039
667	C	0.685871	0.218871	0.374304
668	H	0.674893	0.234975	0.370653
669	H	0.678686	0.207363	0.408078
670	H	0.674191	0.199415	0.348171
671	C	0.722692	0.18075	0.378929
672	H	0.73426	0.175135	0.407614
673	H	0.723698	0.167797	0.348277
674	H	0.696267	0.169733	0.387728
675	N	0.797516	0.221092	0.695732
676	N	0.724898	0.290033	0.363289
677	C	0.796241	0.048259	0.697392
678	C	0.76092	0.030037	0.692367
679	C	0.74252	0.49467	0.692391
680	C	0.758621	0.475498	0.36374
681	C	0.794319	0.493027	0.369403
682	H	0.717034	0.483021	0.688231
683	H	0.747916	0.042621	0.688145
684	C	0.813061	0.029313	0.370397
685	C	0.811984	0.473171	0.374321
686	H	0.795881	0.446088	0.370663
687	H	0.823484	0.47749	0.408099
688	H	0.831446	0.480949	0.348195
689	C	0.850104	0.048113	0.378953
690	H	0.855712	0.065298	0.407634
691	H	0.863065	0.062071	0.348305
692	H	0.861116	0.032705	0.387765
693	N	0.809765	0.082596	0.695728
694	N	0.740821	0.441035	0.363289
695	C	0.982598	0.254152	0.697402
696	C	0.000821	0.237054	0.692381
697	H	0.988237	0.211467	0.688135
698	C	0.001544	0.289917	0.370414
699	C	0.982744	0.308161	0.378967
700	H	0.965554	0.296581	0.407641
701	H	0.968791	0.307168	0.348315
702	H	0.998152	0.334583	0.387786
703	N	0.948261	0.23334	0.695728
704	N	0.589821	0.305958	0.363296
705	C	0.708842	0.33377	0.693955
706	C	0.719791	0.368721	0.693925
707	C	0.697086	0.381242	0.693952
708	C	0.662136	0.357241	0.693925
709	C	0.649613	0.322013	0.693955
710	C	0.673617	0.311066	0.693928
711	H	0.645305	0.365695	0.693822
712	H	0.665162	0.285782	0.693826
713	H	0.745075	0.385551	0.693822
714	C	0.708071	0.416244	0.693904
715	C	0.614612	0.297997	0.693908
716	C	0.732857	0.322786	0.693908
717	H	0.757823	0.340577	0.69277
718	H	0.607438	0.273034	0.692777
719	H	0.690279	0.423417	0.692767
720	C	0.824207	0.18541	0.695298
721	C	0.818711	0.152024	0.69524
722	C	0.845448	0.14497	0.695301
723	C	0.878834	0.172859	0.695243
724	C	0.885888	0.20665	0.695294
725	C	0.858	0.212148	0.69524
726	H	0.898633	0.168479	0.695527
727	H	0.862379	0.236324	0.695523
728	H	0.794535	0.132226	0.695527
729	C	0.840111	0.111676	0.696097
730	C	0.919181	0.234607	0.696097
731	C	0.796252	0.190747	0.696094
732	H	0.773175	0.16973	0.696312
733	H	0.921244	0.257683	0.696309
734	H	0.861128	0.109615	0.696316
735	C	0.776704	0.234616	0.030732
736	C	0.793803	0.269938	0.025712
737	C	0.776834	0.288338	0.025731
738	C	0.741562	0.272234	0.697074
739	C	0.723393	0.236537	0.70273
740	H	0.790674	0.313826	0.021575
741	H	0.819392	0.282942	0.02149
742	C	0.740936	0.217795	0.703724
743	C	0.685871	0.218871	0.707638
744	H	0.674893	0.234975	0.703987
745	H	0.678686	0.207363	0.741409
746	H	0.674191	0.199415	0.681505
747	C	0.722692	0.18075	0.712263
748	H	0.73426	0.175135	0.740948
749	H	0.723698	0.167797	0.681611
750	H	0.696267	0.169733	0.721062
751	N	0.797516	0.221092	0.029063
752	N	0.724898	0.290033	0.696623
753	C	0.796241	0.048259	0.030723
754	C	0.76092	0.030037	0.0257
755	C	0.74252	0.49467	0.025723
756	C	0.758621	0.475498	0.697074
757	C	0.794319	0.493027	0.702737
758	H	0.717034	0.483021	0.021564
759	H	0.747916	0.042621	0.021476
760	C	0.813061	0.029313	0.703731
761	C	0.811984	0.473171	0.707655
762	H	0.795881	0.446088	0.703997
763	H	0.823484	0.47749	0.741433
764	H	0.831446	0.480949	0.681529
765	C	0.850104	0.048113	0.712287
766	H	0.855712	0.065298	0.740968
767	H	0.863065	0.062071	0.681639
768	H	0.861116	0.032705	0.721099
769	N	0.809765	0.082596	0.029059
770	N	0.740821	0.441035	0.696623
771	C	0.982598	0.254152	0.030733
772	C	0.000821	0.237054	0.025715
773	H	0.988237	0.211467	0.021467
774	C	0.001544	0.289917	0.703748
775	C	0.982744	0.308161	0.712301
776	H	0.965554	0.296581	0.740975
777	H	0.968791	0.307168	0.681649
778	H	0.998152	0.334583	0.72112
779	N	0.948261	0.23334	0.029062
780	N	0.589821	0.305958	0.69663
781	C	0.708842	0.83377	0.027287
782	C	0.719791	0.868721	0.027257
783	C	0.697086	0.881242	0.027285
784	C	0.662135	0.857238	0.027257
785	C	0.649613	0.822013	0.027288
786	C	0.673617	0.811066	0.027259
787	H	0.645306	0.865695	0.027156
788	H	0.665162	0.785782	0.027158
789	H	0.745075	0.885551	0.027156
790	C	0.708071	0.916243	0.027236
791	C	0.614612	0.797997	0.027241
792	C	0.732857	0.822785	0.027238
793	H	0.757821	0.840574	0.026102
794	H	0.607438	0.773034	0.026108
795	H	0.690279	0.923417	0.026098
796	C	0.824209	0.685409	0.028631
797	C	0.81871	0.652023	0.02857
798	C	0.845448	0.64497	0.028633
799	C	0.878833	0.672858	0.028575
800	C	0.885887	0.706649	0.028627
801	C	0.858	0.712148	0.028572
802	H	0.898632	0.668478	0.028861
803	H	0.862378	0.736323	0.028855
804	H	0.794534	0.632225	0.028859
805	C	0.840111	0.611677	0.029431
806	C	0.919182	0.734607	0.029428
807	C	0.796252	0.690747	0.029426
808	H	0.773175	0.669731	0.029646
809	H	0.921244	0.757683	0.029643
810	H	0.861127	0.609614	0.029648
811	C	0.776704	0.734615	0.364064
812	C	0.793803	0.769938	0.359047
813	C	0.776833	0.788335	0.359064
814	C	0.741562	0.772234	0.030406
815	C	0.723393	0.736536	0.036063
816	H	0.790673	0.813823	0.35491
817	H	0.819392	0.782942	0.354825
818	C	0.740936	0.717794	0.037056
819	C	0.685871	0.718871	0.04097
820	H	0.674893	0.734974	0.037318
821	H	0.678685	0.707361	0.074743
822	H	0.674191	0.699415	0.014837
823	C	0.722691	0.680748	0.045595
824	H	0.734259	0.675134	0.074279
825	H	0.723698	0.667797	0.014942
826	H	0.696267	0.669734	0.054393
827	N	0.797516	0.721092	0.362398
828	N	0.724898	0.790033	0.029955
829	C	0.796241	0.54826	0.364058
830	C	0.760919	0.530036	0.359033
831	C	0.74252	0.99467	0.359057
832	C	0.758621	0.975498	0.030405
833	C	0.794319	0.993027	0.036071
834	H	0.717034	0.983021	0.354897
835	H	0.747916	0.54262	0.354811
836	C	0.81306	0.529311	0.037064
837	C	0.811983	0.973168	0.040987
838	H	0.795881	0.946088	0.037329
839	H	0.823484	0.97749	0.074765
840	H	0.831446	0.980948	0.014863
841	C	0.850104	0.548114	0.04562
842	H	0.855712	0.565299	0.0743
843	H	0.863065	0.562071	0.01497
844	H	0.861116	0.532705	0.054433
845	N	0.809765	0.582597	0.362394
846	N	0.740821	0.941035	0.029955
847	C	0.982598	0.754151	0.364068
848	C	0.00082	0.737052	0.35905
849	H	0.988236	0.711466	0.354801
850	C	0.001544	0.789917	0.03708
851	C	0.982744	0.808161	0.045633
852	H	0.965554	0.79658	0.074308
853	H	0.968791	0.807168	0.01498
854	H	0.998151	0.83458	0.054452
855	N	0.948261	0.733339	0.362394
856	N	0.589821	0.805958	0.029961
857	C	0.708842	0.83377	0.360621
858	C	0.719791	0.868721	0.360591
859	C	0.697086	0.881242	0.360618
860	C	0.662135	0.857238	0.360591
861	C	0.649613	0.822013	0.360621
862	C	0.673617	0.811066	0.360594
863	H	0.645306	0.865695	0.360488
864	H	0.665162	0.785782	0.360492
865	H	0.745075	0.885551	0.360492
866	C	0.708071	0.916243	0.36057
867	C	0.614612	0.797997	0.360574
868	C	0.732857	0.822785	0.360574
869	H	0.757821	0.840574	0.359436
870	H	0.607438	0.773034	0.359443
871	H	0.690279	0.923417	0.359433
872	C	0.824209	0.685409	0.361964
873	C	0.81871	0.652023	0.361906
874	C	0.845448	0.64497	0.361967
875	C	0.878833	0.672858	0.361909
876	C	0.885887	0.706649	0.36196
877	C	0.858	0.712148	0.361906
878	H	0.898632	0.668478	0.362196
879	H	0.862378	0.736323	0.362189
880	H	0.794534	0.632225	0.362193
881	C	0.840111	0.611677	0.362766
882	C	0.919182	0.734607	0.362763
883	C	0.796252	0.690747	0.36276
884	H	0.773175	0.669731	0.362978
885	H	0.921244	0.757683	0.362978
886	H	0.861127	0.609614	0.362982
887	C	0.776704	0.734615	0.697398
888	C	0.793803	0.769938	0.692381
889	C	0.776833	0.788335	0.692398
890	C	0.741562	0.772234	0.36374
891	C	0.723393	0.736536	0.369396
892	H	0.790673	0.813823	0.688241
893	H	0.819392	0.782942	0.688159
894	C	0.740936	0.717794	0.37039
895	C	0.685871	0.718871	0.374304
896	H	0.674893	0.734974	0.370653
897	H	0.678685	0.707361	0.408078
898	H	0.674191	0.699415	0.348171
899	C	0.722691	0.680748	0.378929
900	H	0.734259	0.675134	0.407614
901	H	0.723698	0.667797	0.348277
902	H	0.696267	0.669734	0.387728
903	N	0.797516	0.721092	0.695732
904	N	0.724898	0.790033	0.363289
905	C	0.796241	0.54826	0.697392
906	C	0.760919	0.530036	0.692367
907	C	0.74252	0.99467	0.692391
908	C	0.758621	0.975498	0.36374
909	C	0.794319	0.993027	0.369403
910	H	0.717034	0.983021	0.688231
911	H	0.747916	0.54262	0.688145
912	C	0.81306	0.529311	0.370397
913	C	0.811983	0.973168	0.374321
914	H	0.795881	0.946088	0.370663
915	H	0.823484	0.97749	0.408099
916	H	0.831446	0.980948	0.348195
917	C	0.850104	0.548114	0.378953
918	H	0.855712	0.565299	0.407634
919	H	0.863065	0.562071	0.348305
920	H	0.861116	0.532705	0.387765
921	N	0.809765	0.582597	0.695728
922	N	0.740821	0.941035	0.363289
923	C	0.982598	0.754151	0.697402
924	C	0.00082	0.737052	0.692381
925	H	0.988236	0.711466	0.688135
926	C	0.001544	0.789917	0.370414
927	C	0.982744	0.808161	0.378967
928	H	0.965554	0.79658	0.407641
929	H	0.968791	0.807168	0.348315
930	H	0.998151	0.83458	0.387786
931	N	0.948261	0.733339	0.695728
932	N	0.589821	0.805958	0.363296
933	C	0.708842	0.83377	0.693955
934	C	0.719791	0.868721	0.693925
935	C	0.697086	0.881242	0.693952
936	C	0.662135	0.857238	0.693925
937	C	0.649613	0.822013	0.693955
938	C	0.673617	0.811066	0.693928
939	H	0.645306	0.865695	0.693822
940	H	0.665162	0.785782	0.693826
941	H	0.745075	0.885551	0.693822
942	C	0.708071	0.916243	0.693904
943	C	0.614612	0.797997	0.693908
944	C	0.732857	0.822785	0.693908
945	H	0.757821	0.840574	0.69277
946	H	0.607438	0.773034	0.692777
947	H	0.690279	0.923417	0.692767
948	C	0.824209	0.685409	0.695298
949	C	0.81871	0.652023	0.69524
950	C	0.845448	0.64497	0.695301
951	C	0.878833	0.672858	0.695243
952	C	0.885887	0.706649	0.695294
953	C	0.858	0.712148	0.69524
954	H	0.898632	0.668478	0.695527
955	H	0.862378	0.736323	0.695523
956	H	0.794534	0.632225	0.695527
957	C	0.840111	0.611677	0.696097
958	C	0.919182	0.734607	0.696097
959	C	0.796252	0.690747	0.696094
960	H	0.773175	0.669731	0.696312
961	H	0.921244	0.757683	0.696309
962	H	0.861127	0.609614	0.696316
963	C	0.776704	0.734615	0.030732
964	C	0.793803	0.769938	0.025712
965	C	0.776833	0.788335	0.025731
966	C	0.741562	0.772234	0.697074
967	C	0.723393	0.736536	0.70273
968	H	0.790673	0.813823	0.021575
969	H	0.819392	0.782942	0.02149
970	C	0.740936	0.717794	0.703724
971	C	0.685871	0.718871	0.707638
972	H	0.674893	0.734974	0.703987
973	H	0.678685	0.707361	0.741409
974	H	0.674191	0.699415	0.681505
975	C	0.722691	0.680748	0.712263
976	H	0.734259	0.675134	0.740948
977	H	0.723698	0.667797	0.681611
978	H	0.696267	0.669734	0.721062
979	N	0.797516	0.721092	0.029063
980	N	0.724898	0.790033	0.696623
981	C	0.796241	0.54826	0.030723
982	C	0.760919	0.530036	0.0257
983	C	0.74252	0.99467	0.025723
984	C	0.758621	0.975498	0.697074
985	C	0.794319	0.993027	0.702737
986	H	0.717034	0.983021	0.021564
987	H	0.747916	0.54262	0.021476
988	C	0.81306	0.529311	0.703731
989	C	0.811983	0.973168	0.707655
990	H	0.795881	0.946088	0.703997
991	H	0.823484	0.97749	0.741433
992	H	0.831446	0.980948	0.681529
993	C	0.850104	0.548114	0.712287
994	H	0.855712	0.565299	0.740968
995	H	0.863065	0.562071	0.681639
996	H	0.861116	0.532705	0.721099
997	N	0.809765	0.582597	0.029059
998	N	0.740821	0.941035	0.696623
999	C	0.982598	0.754151	0.030733
1000	C	0.00082	0.737052	0.025715
1001	H	0.988236	0.711466	0.021467
1002	C	0.001544	0.789917	0.703748
1003	C	0.982744	0.808161	0.712301
1004	H	0.965554	0.79658	0.740975
1005	H	0.968791	0.807168	0.681649
1006	H	0.998151	0.83458	0.72112
1007	N	0.948261	0.733339	0.029062
1008	N	0.589821	0.805958	0.69663
