data_C324H216N216O108_2018-02-15_10:32:37
#******************************************
#
# CIF file created by Zeo++
# Zeo++ is an open source package to
# analyze microporous materials
#
#*******************************************

_cell_length_a		43.2466   
_cell_length_b		43.2466   
_cell_length_c		30.1158   
_cell_angle_alpha		90   
_cell_angle_beta		90   
_cell_angle_gamma		120   

_symmetry_space_group_name_H-M		'P1'
_symmetry_Int_Tables_number		1
_symmetry_cell_setting		Monoclinic

loop_
_symmetry_equiv_pos_as_xyz
'+x,+y,+z'

loop_
_atom_site_label
_atom_site_type_symbol
_atom_site_fract_x
_atom_site_fract_y
_atom_site_fract_z
1	C	0.128452	0.322274	0.379628
2	N	0.154836	0.356992	0.045986
3	C	0.189965	0.366735	0.046306
4	N	0.198306	0.340358	0.045984
5	C	0.172924	0.305225	0.046296
6	N	0.138205	0.296892	0.045964
7	C	0.217061	0.402639	0.041642
8	C	0.181732	0.278135	0.041587
9	C	0.09255	0.313454	0.0416
10	O	0.153968	0.244182	0.041213
11	O	0.086352	0.341212	0.041255
12	O	0.251014	0.408828	0.041295
13	C	0.366336	0.176398	0.294702
14	N	0.341861	0.141002	0.961762
15	C	0.306202	0.128861	0.961427
16	N	0.295281	0.153334	0.961759
17	C	0.318801	0.188988	0.96137
18	N	0.354195	0.199916	0.961709
19	C	0.281214	0.092412	0.966936
20	C	0.307358	0.213994	0.966846
21	C	0.402782	0.187833	0.966839
22	O	0.333161	0.248618	0.972056
23	O	0.411577	0.16202	0.972162
24	O	0.246596	0.083597	0.972195
25	C	0.266246	0.276587	0.022992
26	C	0.228943	0.264035	0.021869
27	C	0.207945	0.22998	0.335402
28	N	0.223128	0.211683	0.318549
29	C	0.258896	0.224601	0.319271
30	N	0.279633	0.256984	0.005046
31	O	0.290391	0.308801	0.041078
32	H	0.181182	0.218793	0.33102
33	C	0.298643	0.305984	0.086657
34	H	0.27489	0.295392	0.107646
35	H	0.317742	0.332671	0.098487
36	H	0.310852	0.289226	0.089968
37	N	0.216169	0.285462	0.036843
38	H	0.234296	0.309951	0.043687
39	N	0.272161	0.20421	0.303272
40	H	0.254525	0.179869	0.294824
41	C	0.21863	0.488713	0.023093
42	C	0.231178	0.463959	0.021963
43	C	0.265239	0.477021	0.335515
44	N	0.283543	0.010506	0.318671
45	C	0.270624	0.033355	0.319392
46	N	0.238237	0.021707	0.005157
47	O	0.186411	0.480641	0.041165
48	H	0.276427	0.461447	0.331129
49	C	0.189213	0.491695	0.08675
50	H	0.199796	0.978523	0.107736
51	H	0.162525	0.484107	0.098568
52	H	0.205974	0.02066	0.090076
53	N	0.209738	0.429753	0.03691
54	H	0.18525	0.423391	0.043745
55	N	0.291012	0.067011	0.303386
56	H	0.31535	0.073717	0.294929
57	C	0.006487	0.228939	0.023008
58	C	0.03124	0.266242	0.021886
59	C	0.018179	0.28724	0.335429
60	N	0.484699	0.272058	0.318577
61	C	0.461849	0.236292	0.319297
62	N	0.473496	0.215553	0.005066
63	O	0.014559	0.204794	0.041087
64	H	0.033757	0.314004	0.331044
65	C	0.003496	0.19654	0.086668
66	H	0.516659	0.220292	0.107657
67	H	0.011084	0.177441	0.098491
68	H	0.474529	0.184332	0.089984
69	N	0.065442	0.279014	0.036851
70	H	0.071809	0.26089	0.043681
71	N	0.428196	0.223029	0.303288
72	H	0.421496	0.240665	0.294821
73	C	0.128452	0.322274	0.712959
74	N	0.154836	0.356992	0.37932
75	C	0.189965	0.366735	0.379638
76	N	0.198306	0.340358	0.379316
77	C	0.172924	0.305225	0.379628
78	N	0.138205	0.296892	0.379296
79	C	0.217061	0.402639	0.374976
80	C	0.181732	0.278135	0.37492
81	C	0.09255	0.313454	0.374933
82	O	0.153968	0.244182	0.374545
83	O	0.086352	0.341212	0.374588
84	O	0.251014	0.408828	0.374628
85	C	0.366336	0.176398	0.628037
86	N	0.341861	0.141002	0.295096
87	C	0.306202	0.128861	0.294761
88	N	0.295281	0.153334	0.295092
89	C	0.318801	0.188988	0.294706
90	N	0.354195	0.199916	0.295044
91	C	0.281214	0.092412	0.300269
92	C	0.307358	0.213994	0.300179
93	C	0.402782	0.187833	0.300175
94	O	0.333161	0.248618	0.30539
95	O	0.411577	0.16202	0.305497
96	O	0.246596	0.083597	0.305531
97	C	0.266246	0.276587	0.356325
98	C	0.228943	0.264035	0.355203
99	C	0.207945	0.22998	0.668736
100	N	0.223128	0.211683	0.651881
101	C	0.258896	0.224601	0.652605
102	N	0.279633	0.256984	0.338378
103	O	0.290391	0.308801	0.374412
104	H	0.181182	0.218793	0.664353
105	C	0.298643	0.305984	0.419989
106	H	0.27489	0.295392	0.440978
107	H	0.317742	0.332671	0.43182
108	H	0.310852	0.289226	0.4233
109	N	0.216169	0.285462	0.370175
110	H	0.234296	0.309951	0.377019
111	N	0.272161	0.20421	0.636607
112	H	0.254525	0.179869	0.628156
113	C	0.21863	0.488713	0.356425
114	C	0.231178	0.463959	0.355296
115	C	0.265239	0.477021	0.668846
116	N	0.283543	0.010506	0.652004
117	C	0.270624	0.033355	0.652725
118	N	0.238237	0.021707	0.338491
119	O	0.186411	0.480641	0.374498
120	H	0.276427	0.461447	0.664463
121	C	0.189213	0.491695	0.420082
122	H	0.199796	0.978523	0.441068
123	H	0.162525	0.484107	0.4319
124	H	0.205974	0.02066	0.42341
125	N	0.209738	0.429753	0.370241
126	H	0.18525	0.423391	0.377078
127	N	0.291012	0.067011	0.63672
128	H	0.31535	0.073717	0.628262
129	C	0.006487	0.228939	0.356342
130	C	0.03124	0.266242	0.355219
131	C	0.018179	0.28724	0.668759
132	N	0.484699	0.272058	0.651911
133	C	0.461849	0.236292	0.652632
134	N	0.473496	0.215553	0.338398
135	O	0.014559	0.204794	0.374419
136	H	0.033757	0.314004	0.664376
137	C	0.003496	0.19654	0.419999
138	H	0.516659	0.220292	0.440988
139	H	0.011084	0.177441	0.431824
140	H	0.474529	0.184332	0.423317
141	N	0.065442	0.279014	0.370185
142	H	0.071809	0.26089	0.377015
143	N	0.428196	0.223029	0.63662
144	H	0.421496	0.240665	0.628153
145	C	0.128452	0.322274	0.046294
146	N	0.154836	0.356992	0.712653
147	C	0.189965	0.366735	0.712972
148	N	0.198306	0.340358	0.71265
149	C	0.172924	0.305225	0.712962
150	N	0.138205	0.296892	0.71263
151	C	0.217061	0.402639	0.708307
152	C	0.181732	0.278135	0.708254
153	C	0.09255	0.313454	0.708267
154	O	0.153968	0.244182	0.707879
155	O	0.086352	0.341212	0.707922
156	O	0.251014	0.408828	0.707962
157	C	0.366336	0.176398	0.961367
158	N	0.341861	0.141002	0.628428
159	C	0.306202	0.128861	0.628093
160	N	0.295281	0.153334	0.628425
161	C	0.318801	0.188988	0.62804
162	N	0.354195	0.199916	0.628379
163	C	0.281214	0.092412	0.633602
164	C	0.307358	0.213994	0.633512
165	C	0.402782	0.187833	0.633509
166	O	0.333161	0.248618	0.638722
167	O	0.411577	0.16202	0.638832
168	O	0.246596	0.083597	0.638865
169	C	0.266246	0.276587	0.689659
170	C	0.228943	0.264035	0.688533
171	C	0.207945	0.22998	0.00207
172	N	0.223128	0.211683	0.985215
173	C	0.258896	0.224601	0.985936
174	N	0.279633	0.256984	0.671711
175	O	0.290391	0.308801	0.707746
176	H	0.181182	0.218793	0.997687
177	C	0.298643	0.305984	0.753323
178	H	0.27489	0.295392	0.774312
179	H	0.317742	0.332671	0.765151
180	H	0.310852	0.289226	0.756634
181	N	0.216169	0.285462	0.703509
182	H	0.234296	0.309951	0.710352
183	N	0.272161	0.20421	0.969937
184	H	0.254525	0.179869	0.96149
185	C	0.21863	0.488713	0.689758
186	C	0.231178	0.463959	0.688629
187	C	0.265239	0.477021	0.002181
188	N	0.283543	0.010506	0.985338
189	C	0.270624	0.033355	0.986058
190	N	0.238237	0.021707	0.671824
191	O	0.186411	0.480641	0.707832
192	H	0.276427	0.461447	0.997793
193	C	0.189213	0.491695	0.753416
194	H	0.199796	0.978523	0.774402
195	H	0.162525	0.484107	0.765234
196	H	0.205974	0.02066	0.756743
197	N	0.209738	0.429753	0.703575
198	H	0.18525	0.423391	0.710412
199	N	0.291012	0.067011	0.970054
200	H	0.31535	0.073717	0.961593
201	C	0.006487	0.228939	0.689672
202	C	0.03124	0.266242	0.688553
203	C	0.018179	0.28724	0.002095
204	N	0.484699	0.272058	0.985242
205	C	0.461849	0.236292	0.985962
206	N	0.473496	0.215553	0.671731
207	O	0.014559	0.204794	0.707752
208	H	0.033757	0.314004	0.99771
209	C	0.003496	0.19654	0.753333
210	H	0.516659	0.220292	0.774322
211	H	0.011084	0.177441	0.765157
212	H	0.474529	0.184332	0.75665
213	N	0.065442	0.279014	0.703519
214	H	0.071809	0.26089	0.710346
215	N	0.428196	0.223029	0.969954
216	H	0.421496	0.240665	0.961487
217	C	0.128453	0.822273	0.379628
218	N	0.154835	0.856991	0.045986
219	C	0.189965	0.866734	0.046306
220	N	0.198306	0.840357	0.045984
221	C	0.172924	0.805225	0.046296
222	N	0.138206	0.796891	0.045964
223	C	0.21706	0.902638	0.041642
224	C	0.181732	0.778134	0.041587
225	C	0.09255	0.813454	0.0416
226	O	0.153968	0.744182	0.041213
227	O	0.086353	0.841211	0.041255
228	O	0.251014	0.908827	0.041295
229	C	0.366336	0.676398	0.294702
230	N	0.34186	0.641001	0.961762
231	C	0.306202	0.628861	0.961427
232	N	0.295281	0.653334	0.961759
233	C	0.3188	0.688987	0.96137
234	N	0.354196	0.699916	0.961709
235	C	0.281214	0.592412	0.966936
236	C	0.307358	0.713995	0.966846
237	C	0.402783	0.687834	0.966839
238	O	0.333161	0.748617	0.972056
239	O	0.411576	0.66202	0.972162
240	O	0.246597	0.583598	0.972195
241	C	0.266246	0.776586	0.022992
242	C	0.228942	0.764034	0.021869
243	C	0.207946	0.72998	0.335402
244	N	0.223128	0.711682	0.318549
245	C	0.258895	0.7246	0.319271
246	N	0.279633	0.756982	0.005046
247	O	0.29039	0.8088	0.041078
248	H	0.181183	0.718793	0.33102
249	C	0.298644	0.805986	0.086657
250	H	0.274891	0.795394	0.107646
251	H	0.317742	0.83267	0.098487
252	H	0.310852	0.789226	0.089968
253	N	0.21617	0.785464	0.036843
254	H	0.234295	0.809951	0.043687
255	N	0.27216	0.704209	0.303272
256	H	0.254525	0.679869	0.294824
257	C	0.21863	0.988712	0.023093
258	C	0.231178	0.963958	0.021963
259	C	0.26524	0.977023	0.335515
260	N	0.283542	0.510506	0.318671
261	C	0.270624	0.533356	0.319392
262	N	0.238237	0.521707	0.005157
263	O	0.18641	0.980641	0.041165
264	H	0.276426	0.961446	0.331129
265	C	0.189213	0.991695	0.08675
266	H	0.199796	0.478524	0.107736
267	H	0.162524	0.984106	0.098568
268	H	0.205974	0.52066	0.090076
269	N	0.209737	0.929752	0.03691
270	H	0.18525	0.92339	0.043745
271	N	0.291011	0.567009	0.303386
272	H	0.31535	0.573716	0.294929
273	C	0.006488	0.728939	0.023008
274	C	0.031239	0.766242	0.021886
275	C	0.018181	0.787242	0.335429
276	N	0.484698	0.772057	0.318577
277	C	0.46185	0.736292	0.319297
278	N	0.473497	0.715554	0.005066
279	O	0.01456	0.704794	0.041087
280	H	0.033756	0.814004	0.331044
281	C	0.003495	0.696538	0.086668
282	H	0.516659	0.720291	0.107657
283	H	0.011085	0.677439	0.098491
284	H	0.474529	0.684331	0.089984
285	N	0.065443	0.779015	0.036851
286	H	0.071807	0.760889	0.043681
287	N	0.428195	0.723027	0.303288
288	H	0.421497	0.740666	0.294821
289	C	0.128453	0.822273	0.712959
290	N	0.154835	0.856991	0.37932
291	C	0.189965	0.866734	0.379638
292	N	0.198306	0.840357	0.379316
293	C	0.172924	0.805225	0.379628
294	N	0.138206	0.796891	0.379296
295	C	0.21706	0.902638	0.374976
296	C	0.181732	0.778134	0.37492
297	C	0.09255	0.813454	0.374933
298	O	0.153968	0.744182	0.374545
299	O	0.086353	0.841211	0.374588
300	O	0.251014	0.908827	0.374628
301	C	0.366336	0.676398	0.628037
302	N	0.34186	0.641001	0.295096
303	C	0.306202	0.628861	0.294761
304	N	0.295281	0.653334	0.295092
305	C	0.3188	0.688987	0.294706
306	N	0.354196	0.699916	0.295044
307	C	0.281214	0.592412	0.300269
308	C	0.307358	0.713995	0.300179
309	C	0.402783	0.687834	0.300175
310	O	0.333161	0.748617	0.30539
311	O	0.411576	0.66202	0.305497
312	O	0.246597	0.583598	0.305531
313	C	0.266246	0.776586	0.356325
314	C	0.228942	0.764034	0.355203
315	C	0.207946	0.72998	0.668736
316	N	0.223128	0.711682	0.651881
317	C	0.258895	0.7246	0.652605
318	N	0.279633	0.756982	0.338378
319	O	0.29039	0.8088	0.374412
320	H	0.181183	0.718793	0.664353
321	C	0.298644	0.805986	0.419989
322	H	0.274891	0.795394	0.440978
323	H	0.317742	0.83267	0.43182
324	H	0.310852	0.789226	0.4233
325	N	0.21617	0.785464	0.370175
326	H	0.234295	0.809951	0.377019
327	N	0.27216	0.704209	0.636607
328	H	0.254525	0.679869	0.628156
329	C	0.21863	0.988712	0.356425
330	C	0.231178	0.963958	0.355296
331	C	0.26524	0.977023	0.668846
332	N	0.283542	0.510506	0.652004
333	C	0.270624	0.533356	0.652725
334	N	0.238237	0.521707	0.338491
335	O	0.18641	0.980641	0.374498
336	H	0.276426	0.961446	0.664463
337	C	0.189213	0.991695	0.420082
338	H	0.199796	0.478524	0.441068
339	H	0.162524	0.984106	0.4319
340	H	0.205974	0.52066	0.42341
341	N	0.209737	0.929752	0.370241
342	H	0.18525	0.92339	0.377078
343	N	0.291011	0.567009	0.63672
344	H	0.31535	0.573716	0.628262
345	C	0.006488	0.728939	0.356342
346	C	0.031239	0.766242	0.355219
347	C	0.018181	0.787242	0.668759
348	N	0.484698	0.772057	0.651911
349	C	0.46185	0.736292	0.652632
350	N	0.473497	0.715554	0.338398
351	O	0.01456	0.704794	0.374419
352	H	0.033756	0.814004	0.664376
353	C	0.003495	0.696538	0.419999
354	H	0.516659	0.720291	0.440988
355	H	0.011085	0.677439	0.431824
356	H	0.474529	0.684331	0.423317
357	N	0.065443	0.779015	0.370185
358	H	0.071807	0.760889	0.377015
359	N	0.428195	0.723027	0.63662
360	H	0.421497	0.740666	0.628153
361	C	0.128453	0.822273	0.046294
362	N	0.154835	0.856991	0.712653
363	C	0.189965	0.866734	0.712972
364	N	0.198306	0.840357	0.71265
365	C	0.172924	0.805225	0.712962
366	N	0.138206	0.796891	0.71263
367	C	0.21706	0.902638	0.708307
368	C	0.181732	0.778134	0.708254
369	C	0.09255	0.813454	0.708267
370	O	0.153968	0.744182	0.707879
371	O	0.086353	0.841211	0.707922
372	O	0.251014	0.908827	0.707962
373	C	0.366336	0.676398	0.961367
374	N	0.34186	0.641001	0.628428
375	C	0.306202	0.628861	0.628093
376	N	0.295281	0.653334	0.628425
377	C	0.3188	0.688987	0.62804
378	N	0.354196	0.699916	0.628379
379	C	0.281214	0.592412	0.633602
380	C	0.307358	0.713995	0.633512
381	C	0.402783	0.687834	0.633509
382	O	0.333161	0.748617	0.638722
383	O	0.411576	0.66202	0.638832
384	O	0.246597	0.583598	0.638865
385	C	0.266246	0.776586	0.689659
386	C	0.228942	0.764034	0.688533
387	C	0.207946	0.72998	0.00207
388	N	0.223128	0.711682	0.985215
389	C	0.258895	0.7246	0.985936
390	N	0.279633	0.756982	0.671711
391	O	0.29039	0.8088	0.707746
392	H	0.181183	0.718793	0.997687
393	C	0.298644	0.805986	0.753323
394	H	0.274891	0.795394	0.774312
395	H	0.317742	0.83267	0.765151
396	H	0.310852	0.789226	0.756634
397	N	0.21617	0.785464	0.703509
398	H	0.234295	0.809951	0.710352
399	N	0.27216	0.704209	0.969937
400	H	0.254525	0.679869	0.96149
401	C	0.21863	0.988712	0.689758
402	C	0.231178	0.963958	0.688629
403	C	0.26524	0.977023	0.002181
404	N	0.283542	0.510506	0.985338
405	C	0.270624	0.533356	0.986058
406	N	0.238237	0.521707	0.671824
407	O	0.18641	0.980641	0.707832
408	H	0.276426	0.961446	0.997793
409	C	0.189213	0.991695	0.753416
410	H	0.199796	0.478524	0.774402
411	H	0.162524	0.984106	0.765234
412	H	0.205974	0.52066	0.756743
413	N	0.209737	0.929752	0.703575
414	H	0.18525	0.92339	0.710412
415	N	0.291011	0.567009	0.970054
416	H	0.31535	0.573716	0.961593
417	C	0.006488	0.728939	0.689675
418	C	0.031239	0.766242	0.688553
419	C	0.018181	0.787242	0.002095
420	N	0.484698	0.772057	0.985242
421	C	0.46185	0.736292	0.985962
422	N	0.473497	0.715554	0.671731
423	O	0.01456	0.704794	0.707752
424	H	0.033756	0.814004	0.99771
425	C	0.003495	0.696538	0.753333
426	H	0.516659	0.720291	0.774322
427	H	0.011085	0.677439	0.765157
428	H	0.474529	0.684331	0.75665
429	N	0.065443	0.779015	0.703519
430	H	0.071807	0.760889	0.710346
431	N	0.428195	0.723027	0.969954
432	H	0.421497	0.740666	0.961487
433	C	0.628452	0.322274	0.379628
434	N	0.654836	0.356992	0.045986
435	C	0.689965	0.366735	0.046306
436	N	0.698306	0.340358	0.045984
437	C	0.672924	0.305225	0.046296
438	N	0.638205	0.296892	0.045964
439	C	0.717059	0.402639	0.041642
440	C	0.681732	0.278135	0.041587
441	C	0.592551	0.313454	0.0416
442	O	0.653969	0.244182	0.041213
443	O	0.586352	0.341212	0.041255
444	O	0.751014	0.408828	0.041295
445	C	0.866334	0.176398	0.294702
446	N	0.841861	0.141002	0.961762
447	C	0.806202	0.128861	0.961427
448	N	0.795281	0.153334	0.961759
449	C	0.818801	0.188988	0.96137
450	N	0.854195	0.199916	0.961709
451	C	0.781214	0.092412	0.966936
452	C	0.807357	0.213994	0.966846
453	C	0.902782	0.187833	0.966839
454	O	0.83316	0.248618	0.972056
455	O	0.911575	0.16202	0.972162
456	O	0.746596	0.083597	0.972195
457	C	0.766246	0.276587	0.022992
458	C	0.728943	0.264035	0.021869
459	C	0.707945	0.22998	0.335402
460	N	0.723127	0.211683	0.318549
461	C	0.758895	0.224601	0.319271
462	N	0.779632	0.256984	0.005046
463	O	0.79039	0.308801	0.041078
464	H	0.681182	0.218793	0.33102
465	C	0.798643	0.305984	0.086657
466	H	0.77489	0.295392	0.107646
467	H	0.817741	0.332671	0.098487
468	H	0.810853	0.289226	0.089968
469	N	0.71617	0.285462	0.036843
470	H	0.734295	0.309951	0.043687
471	N	0.77216	0.20421	0.303272
472	H	0.754525	0.179869	0.294824
473	C	0.71863	0.488713	0.023093
474	C	0.731177	0.463959	0.021963
475	C	0.765239	0.477021	0.335515
476	N	0.783541	0.010506	0.318671
477	C	0.770624	0.033355	0.319392
478	N	0.738238	0.021707	0.005157
479	O	0.686411	0.480641	0.041165
480	H	0.776426	0.461447	0.331129
481	C	0.689212	0.491695	0.08675
482	H	0.699795	0.978523	0.107736
483	H	0.662524	0.484107	0.098568
484	H	0.705973	0.02066	0.090076
485	N	0.709739	0.429753	0.03691
486	H	0.685249	0.423391	0.043745
487	N	0.791012	0.067011	0.303386
488	H	0.81535	0.073717	0.294929
489	C	0.506487	0.228939	0.023008
490	C	0.53124	0.266242	0.021886
491	C	0.518179	0.28724	0.335429
492	N	0.984699	0.272058	0.318577
493	C	0.961849	0.236292	0.319297
494	N	0.973496	0.215553	0.005066
495	O	0.514559	0.204794	0.041087
496	H	0.533756	0.314004	0.331044
497	C	0.503495	0.19654	0.086668
498	H	0.01666	0.220292	0.107657
499	H	0.511084	0.177441	0.098491
500	H	0.974529	0.184332	0.089984
501	N	0.565441	0.279014	0.036851
502	H	0.571809	0.26089	0.043681
503	N	0.928196	0.223029	0.303288
504	H	0.921496	0.240665	0.294821
505	C	0.628452	0.322274	0.712959
506	N	0.654836	0.356992	0.37932
507	C	0.689965	0.366735	0.379638
508	N	0.698306	0.340358	0.379316
509	C	0.672924	0.305225	0.379628
510	N	0.638205	0.296892	0.379296
511	C	0.717059	0.402639	0.374976
512	C	0.681732	0.278135	0.37492
513	C	0.592551	0.313454	0.374933
514	O	0.653969	0.244182	0.374545
515	O	0.586352	0.341212	0.374588
516	O	0.751014	0.408828	0.374628
517	C	0.866334	0.176398	0.628037
518	N	0.841861	0.141002	0.295096
519	C	0.806202	0.128861	0.294761
520	N	0.795281	0.153334	0.295092
521	C	0.818801	0.188988	0.294706
522	N	0.854195	0.199916	0.295044
523	C	0.781214	0.092412	0.300269
524	C	0.807357	0.213994	0.300179
525	C	0.902782	0.187833	0.300175
526	O	0.83316	0.248618	0.30539
527	O	0.911575	0.16202	0.305497
528	O	0.746596	0.083597	0.305531
529	C	0.766246	0.276587	0.356325
530	C	0.728943	0.264035	0.355203
531	C	0.707945	0.22998	0.668736
532	N	0.723127	0.211683	0.651881
533	C	0.758895	0.224601	0.652605
534	N	0.779632	0.256984	0.338378
535	O	0.79039	0.308801	0.374412
536	H	0.681182	0.218793	0.664353
537	C	0.798643	0.305984	0.419989
538	H	0.77489	0.295392	0.440978
539	H	0.817741	0.332671	0.43182
540	H	0.810853	0.289226	0.4233
541	N	0.71617	0.285462	0.370175
542	H	0.734295	0.309951	0.377019
543	N	0.77216	0.20421	0.636607
544	H	0.754525	0.179869	0.628156
545	C	0.71863	0.488713	0.356425
546	C	0.731177	0.463959	0.355296
547	C	0.765239	0.477021	0.668846
548	N	0.783541	0.010506	0.652004
549	C	0.770624	0.033355	0.652725
550	N	0.738238	0.021707	0.338491
551	O	0.686411	0.480641	0.374498
552	H	0.776426	0.461447	0.664463
553	C	0.689212	0.491695	0.420082
554	H	0.699795	0.978523	0.441068
555	H	0.662524	0.484107	0.4319
556	H	0.705973	0.02066	0.42341
557	N	0.709739	0.429753	0.370241
558	H	0.685249	0.423391	0.377078
559	N	0.791012	0.067011	0.63672
560	H	0.81535	0.073717	0.628262
561	C	0.506487	0.228939	0.356342
562	C	0.53124	0.266242	0.355219
563	C	0.518179	0.28724	0.668759
564	N	0.984699	0.272058	0.651911
565	C	0.961849	0.236292	0.652632
566	N	0.973496	0.215553	0.338398
567	O	0.514559	0.204794	0.374419
568	H	0.533756	0.314004	0.664376
569	C	0.503495	0.19654	0.419999
570	H	0.01666	0.220292	0.440988
571	H	0.511084	0.177441	0.431824
572	H	0.974529	0.184332	0.423317
573	N	0.565441	0.279014	0.370185
574	H	0.571809	0.26089	0.377015
575	N	0.928196	0.223029	0.63662
576	H	0.921496	0.240665	0.628153
577	C	0.628452	0.322274	0.046294
578	N	0.654836	0.356992	0.712653
579	C	0.689965	0.366735	0.712972
580	N	0.698306	0.340358	0.71265
581	C	0.672924	0.305225	0.712962
582	N	0.638205	0.296892	0.71263
583	C	0.717059	0.402639	0.708307
584	C	0.681732	0.278135	0.708254
585	C	0.592551	0.313454	0.708267
586	O	0.653969	0.244182	0.707879
587	O	0.586352	0.341212	0.707922
588	O	0.751014	0.408828	0.707962
589	C	0.866334	0.176398	0.961367
590	N	0.841861	0.141002	0.628428
591	C	0.806202	0.128861	0.628093
592	N	0.795281	0.153334	0.628425
593	C	0.818801	0.188988	0.62804
594	N	0.854195	0.199916	0.628379
595	C	0.781214	0.092412	0.633602
596	C	0.807357	0.213994	0.633512
597	C	0.902782	0.187833	0.633509
598	O	0.83316	0.248618	0.638722
599	O	0.911575	0.16202	0.638832
600	O	0.746596	0.083597	0.638865
601	C	0.766246	0.276587	0.689659
602	C	0.728943	0.264035	0.688533
603	C	0.707945	0.22998	0.00207
604	N	0.723127	0.211683	0.985215
605	C	0.758895	0.224601	0.985936
606	N	0.779632	0.256984	0.671711
607	O	0.79039	0.308801	0.707746
608	H	0.681182	0.218793	0.997687
609	C	0.798643	0.305984	0.753323
610	H	0.77489	0.295392	0.774312
611	H	0.817741	0.332671	0.765151
612	H	0.810853	0.289226	0.756634
613	N	0.71617	0.285462	0.703509
614	H	0.734295	0.309951	0.710352
615	N	0.77216	0.20421	0.969937
616	H	0.754525	0.179869	0.96149
617	C	0.71863	0.488713	0.689758
618	C	0.731177	0.463959	0.688629
619	C	0.765239	0.477021	0.002181
620	N	0.783541	0.010506	0.985338
621	C	0.770624	0.033355	0.986058
622	N	0.738238	0.021707	0.671824
623	O	0.686411	0.480641	0.707832
624	H	0.776426	0.461447	0.997793
625	C	0.689212	0.491695	0.753416
626	H	0.699795	0.978523	0.774402
627	H	0.662524	0.484107	0.765234
628	H	0.705973	0.02066	0.756743
629	N	0.709739	0.429753	0.703575
630	H	0.685249	0.423391	0.710412
631	N	0.791012	0.067011	0.970054
632	H	0.81535	0.073717	0.961593
633	C	0.506487	0.228939	0.689672
634	C	0.53124	0.266242	0.688553
635	C	0.518179	0.28724	0.002095
636	N	0.984699	0.272058	0.985242
637	C	0.961849	0.236292	0.985962
638	N	0.973496	0.215553	0.671731
639	O	0.514559	0.204794	0.707752
640	H	0.533756	0.314004	0.99771
641	C	0.503495	0.19654	0.753333
642	H	0.01666	0.220292	0.774322
643	H	0.511084	0.177441	0.765157
644	H	0.974529	0.184332	0.75665
645	N	0.565441	0.279014	0.703519
646	H	0.571809	0.26089	0.710346
647	N	0.928196	0.223029	0.969954
648	H	0.921496	0.240665	0.961487
649	C	0.628452	0.822273	0.379628
650	N	0.654835	0.856991	0.045986
651	C	0.689965	0.866734	0.046306
652	N	0.698307	0.840357	0.045984
653	C	0.672923	0.805225	0.046296
654	N	0.638203	0.796891	0.045964
655	C	0.71706	0.902638	0.041642
656	C	0.681731	0.778134	0.041587
657	C	0.59255	0.813454	0.0416
658	O	0.653968	0.744182	0.041213
659	O	0.586351	0.841211	0.041255
660	O	0.751013	0.908827	0.041295
661	C	0.866335	0.676398	0.294702
662	N	0.84186	0.641001	0.961762
663	C	0.806201	0.628861	0.961427
664	N	0.795282	0.653334	0.961759
665	C	0.818799	0.688987	0.96137
666	N	0.854196	0.699916	0.961709
667	C	0.781213	0.592412	0.966936
668	C	0.807359	0.713995	0.966846
669	C	0.902782	0.687834	0.966839
670	O	0.833161	0.748617	0.972056
671	O	0.911576	0.66202	0.972162
672	O	0.746596	0.583598	0.972195
673	C	0.766246	0.776586	0.022992
674	C	0.728941	0.764034	0.021869
675	C	0.707944	0.72998	0.335402
676	N	0.723128	0.711682	0.318549
677	C	0.758895	0.7246	0.319271
678	N	0.779633	0.756982	0.005046
679	O	0.790391	0.8088	0.041078
680	H	0.681181	0.718793	0.33102
681	C	0.798645	0.805986	0.086657
682	H	0.774892	0.795394	0.107646
683	H	0.817742	0.83267	0.098487
684	H	0.810851	0.789226	0.089968
685	N	0.71617	0.785464	0.036843
686	H	0.734296	0.809951	0.043687
687	N	0.772161	0.704209	0.303272
688	H	0.754524	0.679869	0.294824
689	C	0.718629	0.988712	0.023093
690	C	0.731178	0.963958	0.021963
691	C	0.765241	0.977023	0.335515
692	N	0.783542	0.510506	0.318671
693	C	0.770625	0.533356	0.319392
694	N	0.738237	0.521707	0.005157
695	O	0.68641	0.980641	0.041165
696	H	0.776427	0.961446	0.331129
697	C	0.689213	0.991695	0.08675
698	H	0.699795	0.478524	0.107736
699	H	0.662524	0.984106	0.098568
700	H	0.705974	0.52066	0.090076
701	N	0.709737	0.929752	0.03691
702	H	0.685249	0.92339	0.043745
703	N	0.79101	0.567009	0.303386
704	H	0.815351	0.573716	0.294929
705	C	0.506487	0.728939	0.023008
706	C	0.531239	0.766242	0.021886
707	C	0.51818	0.787242	0.335429
708	N	0.984698	0.772057	0.318577
709	C	0.961848	0.736292	0.319297
710	N	0.973497	0.715554	0.005066
711	O	0.514559	0.704794	0.041087
712	H	0.533756	0.814004	0.331044
713	C	0.503495	0.696538	0.086668
714	H	0.016659	0.720291	0.107657
715	H	0.511083	0.677439	0.098491
716	H	0.974529	0.684331	0.089984
717	N	0.565443	0.779015	0.036851
718	H	0.571808	0.760889	0.043681
719	N	0.928194	0.723027	0.303288
720	H	0.921498	0.740666	0.294821
721	C	0.628452	0.822273	0.712959
722	N	0.654835	0.856991	0.37932
723	C	0.689965	0.866734	0.379638
724	N	0.698307	0.840357	0.379316
725	C	0.672923	0.805225	0.379628
726	N	0.638203	0.796891	0.379296
727	C	0.71706	0.902638	0.374976
728	C	0.681731	0.778134	0.37492
729	C	0.59255	0.813454	0.374933
730	O	0.653968	0.744182	0.374545
731	O	0.586351	0.841211	0.374588
732	O	0.751013	0.908827	0.374628
733	C	0.866335	0.676398	0.628037
734	N	0.84186	0.641001	0.295096
735	C	0.806201	0.628861	0.294761
736	N	0.795282	0.653334	0.295092
737	C	0.818799	0.688987	0.294706
738	N	0.854196	0.699916	0.295044
739	C	0.781213	0.592412	0.300269
740	C	0.807359	0.713995	0.300179
741	C	0.902782	0.687834	0.300175
742	O	0.833161	0.748617	0.30539
743	O	0.911576	0.66202	0.305497
744	O	0.746596	0.583598	0.305531
745	C	0.766246	0.776586	0.356325
746	C	0.728941	0.764034	0.355203
747	C	0.707944	0.72998	0.668736
748	N	0.723128	0.711682	0.651881
749	C	0.758895	0.7246	0.652605
750	N	0.779633	0.756982	0.338378
751	O	0.790391	0.8088	0.374412
752	H	0.681181	0.718793	0.664353
753	C	0.798645	0.805986	0.419989
754	H	0.774892	0.795394	0.440978
755	H	0.817742	0.83267	0.43182
756	H	0.810851	0.789226	0.4233
757	N	0.71617	0.785464	0.370175
758	H	0.734296	0.809951	0.377019
759	N	0.772161	0.704209	0.636607
760	H	0.754524	0.679869	0.628156
761	C	0.718629	0.988712	0.356425
762	C	0.731178	0.963958	0.355296
763	C	0.765241	0.977023	0.668846
764	N	0.783542	0.510506	0.652004
765	C	0.770625	0.533356	0.652725
766	N	0.738237	0.521707	0.338491
767	O	0.68641	0.980641	0.374498
768	H	0.776427	0.961446	0.664463
769	C	0.689213	0.991695	0.420082
770	H	0.699795	0.478524	0.441068
771	H	0.662524	0.984106	0.4319
772	H	0.705974	0.52066	0.42341
773	N	0.709737	0.929752	0.370241
774	H	0.685249	0.92339	0.377078
775	N	0.79101	0.567009	0.63672
776	H	0.815351	0.573716	0.628262
777	C	0.506487	0.728939	0.356342
778	C	0.531239	0.766242	0.355219
779	C	0.51818	0.787242	0.668759
780	N	0.984698	0.772057	0.651911
781	C	0.961848	0.736292	0.652632
782	N	0.973497	0.715554	0.338398
783	O	0.514559	0.704794	0.374419
784	H	0.533756	0.814004	0.664376
785	C	0.503495	0.696538	0.419999
786	H	0.016659	0.720291	0.440988
787	H	0.511083	0.677439	0.431824
788	H	0.974529	0.684331	0.423317
789	N	0.565443	0.779015	0.370185
790	H	0.571808	0.760889	0.377015
791	N	0.928194	0.723027	0.63662
792	H	0.921498	0.740666	0.628153
793	C	0.628452	0.822273	0.046294
794	N	0.654835	0.856991	0.712653
795	C	0.689965	0.866734	0.712972
796	N	0.698307	0.840357	0.71265
797	C	0.672923	0.805225	0.712962
798	N	0.638203	0.796891	0.71263
799	C	0.71706	0.902638	0.708307
800	C	0.681731	0.778134	0.708254
801	C	0.59255	0.813454	0.708267
802	O	0.653968	0.744182	0.707879
803	O	0.586351	0.841211	0.707922
804	O	0.751013	0.908827	0.707962
805	C	0.866335	0.676398	0.961367
806	N	0.84186	0.641001	0.628428
807	C	0.806201	0.628861	0.628093
808	N	0.795282	0.653334	0.628425
809	C	0.818799	0.688987	0.62804
810	N	0.854196	0.699916	0.628379
811	C	0.781213	0.592412	0.633602
812	C	0.807359	0.713995	0.633512
813	C	0.902782	0.687834	0.633509
814	O	0.833161	0.748617	0.638722
815	O	0.911576	0.66202	0.638832
816	O	0.746596	0.583598	0.638865
817	C	0.766246	0.776586	0.689659
818	C	0.728941	0.764034	0.688533
819	C	0.707944	0.72998	0.00207
820	N	0.723128	0.711682	0.985215
821	C	0.758895	0.7246	0.985936
822	N	0.779633	0.756982	0.671711
823	O	0.790391	0.8088	0.707746
824	H	0.681181	0.718793	0.997687
825	C	0.798645	0.805986	0.753323
826	H	0.774892	0.795394	0.774312
827	H	0.817742	0.83267	0.765151
828	H	0.810851	0.789226	0.756634
829	N	0.71617	0.785464	0.703509
830	H	0.734296	0.809951	0.710352
831	N	0.772161	0.704209	0.969937
832	H	0.754524	0.679869	0.96149
833	C	0.718629	0.988712	0.689758
834	C	0.731178	0.963958	0.688629
835	C	0.765241	0.977023	0.002181
836	N	0.783542	0.510506	0.985338
837	C	0.770625	0.533356	0.986058
838	N	0.738237	0.521707	0.671824
839	O	0.68641	0.980641	0.707832
840	H	0.776427	0.961446	0.997793
841	C	0.689213	0.991695	0.753416
842	H	0.699795	0.478524	0.774402
843	H	0.662524	0.984106	0.765234
844	H	0.705974	0.52066	0.756743
845	N	0.709737	0.929752	0.703575
846	H	0.685249	0.92339	0.710412
847	N	0.79101	0.567009	0.970054
848	H	0.815351	0.573716	0.961593
849	C	0.506487	0.728939	0.689675
850	C	0.531239	0.766242	0.688553
851	C	0.51818	0.787242	0.002095
852	N	0.984698	0.772057	0.985242
853	C	0.961848	0.736292	0.985962
854	N	0.973497	0.715554	0.671731
855	O	0.514559	0.704794	0.707752
856	H	0.533756	0.814004	0.99771
857	C	0.503495	0.696538	0.753333
858	H	0.016659	0.720291	0.774322
859	H	0.511083	0.677439	0.765157
860	H	0.974529	0.684331	0.75665
861	N	0.565443	0.779015	0.703519
862	H	0.571808	0.760889	0.710346
863	N	0.928194	0.723027	0.969954
864	H	0.921498	0.740666	0.961487
