data_C360H144N216O144_2018-02-15_10:44:55
#******************************************
#
# CIF file created by Zeo++
# Zeo++ is an open source package to
# analyze microporous materials
#
#*******************************************

_cell_length_a		45.351   
_cell_length_b		45.351   
_cell_length_c		29.1962   
_cell_angle_alpha		90   
_cell_angle_beta		90   
_cell_angle_gamma		120   

_symmetry_space_group_name_H-M		'P1'
_symmetry_Int_Tables_number		1
_symmetry_cell_setting		Monoclinic

loop_
_symmetry_equiv_pos_as_xyz
'+x,+y,+z'

loop_
_atom_site_label
_atom_site_type_symbol
_atom_site_fract_x
_atom_site_fract_y
_atom_site_fract_z
1	C	0.195642	0.380801	0.031383
2	N	0.162451	0.355189	0.03141
3	C	0.153616	0.321725	0.031383
4	N	0.179226	0.314145	0.03141
5	C	0.212691	0.338774	0.031383
6	N	0.220271	0.371963	0.031409
7	C	0.239441	0.331406	0.031733
8	C	0.203009	0.414917	0.031732
9	C	0.119497	0.294973	0.031735
10	H	0.115931	0.270973	0.031893
11	H	0.182575	0.418484	0.031894
12	H	0.263442	0.351841	0.031891
13	H	0.279648	0.181105	0.030598
14	C	0.256055	0.285524	0.365507
15	C	0.239283	0.249615	0.362859
16	C	0.257305	0.231724	0.36301
17	C	0.293208	0.249041	0.032496
18	H	0.243824	0.205792	0.360777
19	H	0.213297	0.235903	0.360516
20	C	0.292267	0.303291	0.035525
21	N	0.235321	0.299515	0.364681
22	C	0.248892	0.477414	0.365507
23	C	0.2848	0.496551	0.362852
24	C	0.285374	0.05105	0.032501
25	C	0.249196	0.0323	0.035566
26	H	0.298512	0.484276	0.36051
27	C	0.231125	0.495858	0.035534
28	N	0.229733	0.04883	0.039203
29	N	0.195271	0.477226	0.03968
30	O	0.233123	0.066909	0.004796
31	O	0.180417	0.482354	0.006923
32	O	0.236656	0.066593	0.074879
33	O	0.185003	0.482484	0.077118
34	N	0.2349	0.442687	0.364681
35	C	0.057003	0.278362	0.365507
36	C	0.037863	0.295131	0.362856
37	H	0.050138	0.321117	0.360513
38	C	0.038556	0.242148	0.035528
39	N	0.057189	0.224927	0.039668
40	O	0.052062	0.204948	0.006909
41	O	0.05193	0.209397	0.077103
42	N	0.091727	0.299095	0.364681
43	C	0.195642	0.380801	0.364716
44	N	0.162451	0.355189	0.364743
45	C	0.153616	0.321725	0.364716
46	N	0.179226	0.314145	0.364743
47	C	0.212691	0.338774	0.364716
48	N	0.220271	0.371963	0.364743
49	C	0.239441	0.331406	0.365065
50	C	0.203009	0.414917	0.365065
51	C	0.119497	0.294973	0.365068
52	H	0.115931	0.270973	0.365226
53	H	0.182575	0.418484	0.365226
54	H	0.263442	0.351841	0.365223
55	H	0.279648	0.181105	0.363931
56	C	0.256055	0.285524	0.698838
57	C	0.239283	0.249615	0.696191
58	C	0.257305	0.231724	0.696345
59	C	0.293208	0.249041	0.365829
60	H	0.243824	0.205792	0.694112
61	H	0.213297	0.235903	0.693851
62	C	0.292267	0.303291	0.368857
63	N	0.235321	0.299515	0.698016
64	C	0.248892	0.477414	0.698842
65	C	0.2848	0.496551	0.696187
66	C	0.285374	0.05105	0.365832
67	C	0.249196	0.0323	0.368898
68	H	0.298512	0.484276	0.693841
69	C	0.231125	0.495858	0.368867
70	N	0.229733	0.04883	0.372535
71	N	0.195271	0.477226	0.373011
72	O	0.233123	0.066909	0.338129
73	O	0.180417	0.482354	0.340258
74	O	0.236656	0.066593	0.408211
75	O	0.185003	0.482484	0.410451
76	N	0.2349	0.442687	0.698013
77	C	0.057003	0.278362	0.698838
78	C	0.037863	0.295131	0.696187
79	H	0.050138	0.321117	0.693844
80	C	0.038556	0.242148	0.36886
81	N	0.057189	0.224927	0.373001
82	O	0.052062	0.204948	0.340242
83	O	0.05193	0.209397	0.410434
84	N	0.091727	0.299095	0.698016
85	C	0.195642	0.380801	0.69805
86	N	0.162451	0.355189	0.698074
87	C	0.153616	0.321725	0.69805
88	N	0.179226	0.314145	0.698078
89	C	0.212691	0.338774	0.69805
90	N	0.220271	0.371963	0.698074
91	C	0.239441	0.331406	0.6984
92	C	0.203009	0.414917	0.698396
93	C	0.119497	0.294973	0.6984
94	H	0.115931	0.270973	0.698561
95	H	0.182575	0.418484	0.698561
96	H	0.263442	0.351841	0.698557
97	H	0.279648	0.181105	0.697263
98	C	0.256055	0.285524	0.032172
99	C	0.239283	0.249615	0.029525
100	C	0.257305	0.231724	0.029678
101	C	0.293208	0.249041	0.699164
102	H	0.243824	0.205792	0.027444
103	H	0.213297	0.235903	0.027185
104	C	0.292267	0.303291	0.702191
105	N	0.235321	0.299515	0.03135
106	C	0.248892	0.477414	0.032174
107	C	0.2848	0.496551	0.029521
108	C	0.285374	0.05105	0.699167
109	C	0.249196	0.0323	0.702232
110	H	0.298512	0.484276	0.027175
111	C	0.231125	0.495858	0.702202
112	N	0.229733	0.04883	0.70587
113	N	0.195271	0.477226	0.706346
114	O	0.233123	0.066909	0.671461
115	O	0.180417	0.482354	0.673592
116	O	0.236656	0.066593	0.741546
117	O	0.185003	0.482484	0.743782
118	N	0.2349	0.442687	0.031348
119	C	0.057003	0.278362	0.032172
120	C	0.037863	0.295131	0.029521
121	H	0.050138	0.321117	0.027179
122	C	0.038556	0.242148	0.702195
123	N	0.057189	0.224927	0.706332
124	O	0.052062	0.204948	0.673575
125	O	0.05193	0.209397	0.743769
126	N	0.091727	0.299095	0.03135
127	C	0.195642	0.880799	0.031383
128	N	0.162452	0.85519	0.03141
129	C	0.153615	0.821724	0.031383
130	N	0.179225	0.814144	0.03141
131	C	0.212691	0.838773	0.031383
132	N	0.220271	0.871964	0.031409
133	C	0.239442	0.831407	0.031733
134	C	0.20301	0.914918	0.031732
135	C	0.119498	0.794974	0.031735
136	H	0.115932	0.770974	0.031893
137	H	0.182575	0.918482	0.031894
138	H	0.263441	0.85184	0.031891
139	H	0.279648	0.681105	0.030598
140	C	0.256054	0.785523	0.365507
141	C	0.239284	0.749614	0.362859
142	C	0.257305	0.731723	0.36301
143	C	0.293209	0.749042	0.032496
144	H	0.243824	0.705793	0.360777
145	H	0.213298	0.735904	0.360516
146	C	0.292267	0.80329	0.035525
147	N	0.23532	0.799514	0.364681
148	C	0.248892	0.977413	0.365507
149	C	0.284801	0.996552	0.362852
150	C	0.285374	0.551049	0.032501
151	C	0.249197	0.532299	0.035566
152	H	0.298512	0.984277	0.36051
153	C	0.231126	0.995859	0.035534
154	N	0.229732	0.548828	0.039203
155	N	0.195273	0.977227	0.03968
156	O	0.233123	0.566909	0.004796
157	O	0.180416	0.982352	0.006923
158	O	0.236656	0.566593	0.074879
159	O	0.185004	0.982485	0.077118
160	N	0.234902	0.942688	0.364681
161	C	0.057002	0.77836	0.365507
162	C	0.037865	0.795132	0.362856
163	H	0.050139	0.821118	0.360513
164	C	0.038556	0.742147	0.035528
165	N	0.057189	0.724927	0.039668
166	O	0.052061	0.704948	0.006909
167	O	0.051931	0.709396	0.077103
168	N	0.091728	0.799094	0.364681
169	C	0.195642	0.880799	0.364716
170	N	0.162452	0.85519	0.364743
171	C	0.153615	0.821724	0.364716
172	N	0.179225	0.814144	0.364743
173	C	0.212691	0.838773	0.364716
174	N	0.220271	0.871964	0.364743
175	C	0.239442	0.831407	0.365065
176	C	0.20301	0.914918	0.365065
177	C	0.119498	0.794974	0.365068
178	H	0.115932	0.770974	0.365226
179	H	0.182575	0.918482	0.365226
180	H	0.263441	0.85184	0.365223
181	H	0.279648	0.681105	0.363931
182	C	0.256054	0.785523	0.698838
183	C	0.239284	0.749614	0.696191
184	C	0.257305	0.731723	0.696345
185	C	0.293209	0.749042	0.365829
186	H	0.243824	0.705793	0.694112
187	H	0.213298	0.735904	0.693851
188	C	0.292267	0.80329	0.368857
189	N	0.23532	0.799514	0.698016
190	C	0.248892	0.977413	0.698842
191	C	0.284801	0.996552	0.696187
192	C	0.285374	0.551049	0.365832
193	C	0.249197	0.532299	0.368898
194	H	0.298512	0.984277	0.693841
195	C	0.231126	0.995859	0.368867
196	N	0.229732	0.548828	0.372535
197	N	0.195273	0.977227	0.373011
198	O	0.233123	0.566909	0.338129
199	O	0.180416	0.982352	0.340258
200	O	0.236656	0.566593	0.408211
201	O	0.185004	0.982485	0.410451
202	N	0.234902	0.942688	0.698013
203	C	0.057002	0.77836	0.698838
204	C	0.037865	0.795132	0.696187
205	H	0.050139	0.821118	0.693844
206	C	0.038556	0.742147	0.36886
207	N	0.057189	0.724927	0.373001
208	O	0.052061	0.704948	0.340242
209	O	0.051931	0.709396	0.410434
210	N	0.091728	0.799094	0.698016
211	C	0.195642	0.880799	0.69805
212	N	0.162452	0.85519	0.698074
213	C	0.153615	0.821724	0.69805
214	N	0.179225	0.814144	0.698078
215	C	0.212691	0.838773	0.69805
216	N	0.220271	0.871964	0.698074
217	C	0.239442	0.831407	0.6984
218	C	0.20301	0.914918	0.698396
219	C	0.119498	0.794974	0.6984
220	H	0.115932	0.770974	0.698561
221	H	0.182575	0.918482	0.698561
222	H	0.263441	0.85184	0.698557
223	H	0.279648	0.681105	0.697263
224	C	0.256054	0.785523	0.032172
225	C	0.239284	0.749614	0.029525
226	C	0.257305	0.731723	0.029678
227	C	0.293209	0.749042	0.699164
228	H	0.243824	0.705793	0.027444
229	H	0.213298	0.735904	0.027185
230	C	0.292267	0.80329	0.702191
231	N	0.23532	0.799514	0.03135
232	C	0.248892	0.977413	0.032174
233	C	0.284801	0.996552	0.029521
234	C	0.285374	0.551049	0.699167
235	C	0.249197	0.532299	0.702232
236	H	0.298512	0.984277	0.027175
237	C	0.231126	0.995859	0.702202
238	N	0.229732	0.548828	0.70587
239	N	0.195273	0.977227	0.706346
240	O	0.233123	0.566909	0.671461
241	O	0.180416	0.982352	0.673592
242	O	0.236656	0.566593	0.741546
243	O	0.185004	0.982485	0.743782
244	N	0.234902	0.942688	0.031348
245	C	0.057002	0.77836	0.032172
246	C	0.037865	0.795132	0.029521
247	H	0.050139	0.821118	0.027179
248	C	0.038556	0.742147	0.702195
249	N	0.057189	0.724927	0.706332
250	O	0.052061	0.704948	0.673575
251	O	0.051931	0.709396	0.743769
252	N	0.091728	0.799094	0.03135
253	N	0.301514	0.085848	0.032555
254	N	0.301514	0.085848	0.365887
255	N	0.301514	0.085848	0.699222
256	N	0.301513	0.585847	0.032555
257	N	0.301513	0.585847	0.365887
258	N	0.301513	0.585847	0.699222
259	C	0.343944	0.146254	0.031354
260	N	0.377596	0.170636	0.031338
261	C	0.388161	0.204573	0.031349
262	N	0.36378	0.213843	0.031335
263	C	0.329844	0.190472	0.031351
264	N	0.320572	0.15682	0.031341
265	C	0.304588	0.199988	0.031216
266	C	0.334428	0.111483	0.031224
267	C	0.422934	0.229828	0.031214
268	H	0.428989	0.254767	0.030589
269	H	0.353311	0.105427	0.030592
270	C	0.310635	0.285219	0.035555
271	N	0.346631	0.304684	0.039184
272	N	0.309489	0.339146	0.03966
273	O	0.361315	0.30129	0.004772
274	O	0.329466	0.353995	0.006896
275	O	0.357475	0.297764	0.074858
276	O	0.325022	0.34942	0.077093
277	N	0.311867	0.232902	0.032547
278	C	0.302691	0.032465	0.36301
279	H	0.328623	0.044915	0.36077
280	C	0.483365	0.241207	0.032495
281	N	0.485584	0.187786	0.03919
282	O	0.467507	0.173099	0.004779
283	O	0.467821	0.176943	0.074865
284	N	0.448568	0.222549	0.032547
285	C	0.343944	0.146254	0.364688
286	N	0.377596	0.170636	0.364671
287	C	0.388161	0.204573	0.364681
288	N	0.36378	0.213843	0.364668
289	C	0.329844	0.190472	0.364685
290	N	0.320572	0.15682	0.364675
291	C	0.304588	0.199988	0.364551
292	C	0.334428	0.111483	0.364558
293	C	0.422934	0.229828	0.364548
294	H	0.428989	0.254767	0.363921
295	H	0.353311	0.105427	0.363924
296	C	0.310635	0.285219	0.368887
297	N	0.346631	0.304684	0.372518
298	N	0.309489	0.339146	0.372994
299	O	0.361315	0.30129	0.338106
300	O	0.329466	0.353995	0.340231
301	O	0.357475	0.297764	0.40819
302	O	0.325022	0.34942	0.410427
303	N	0.311867	0.232902	0.36588
304	C	0.302691	0.032465	0.696341
305	H	0.328623	0.044915	0.694105
306	C	0.483365	0.241207	0.365829
307	N	0.485584	0.187786	0.372525
308	O	0.467507	0.173099	0.338114
309	O	0.467821	0.176943	0.408197
310	N	0.448568	0.222549	0.36588
311	C	0.343944	0.146254	0.69802
312	N	0.377596	0.170636	0.698002
313	C	0.388161	0.204573	0.698016
314	N	0.36378	0.213843	0.698002
315	C	0.329844	0.190472	0.698016
316	N	0.320572	0.15682	0.698006
317	C	0.304588	0.199988	0.697883
318	C	0.334428	0.111483	0.697889
319	C	0.422934	0.229828	0.697879
320	H	0.428989	0.254767	0.697256
321	H	0.353311	0.105427	0.697259
322	C	0.310635	0.285219	0.702222
323	N	0.346631	0.304684	0.705849
324	N	0.309489	0.339146	0.706325
325	O	0.361315	0.30129	0.671441
326	O	0.329466	0.353995	0.673564
327	O	0.357475	0.297764	0.741525
328	O	0.325022	0.34942	0.743758
329	N	0.311867	0.232902	0.699212
330	C	0.302691	0.032465	0.029675
331	H	0.328623	0.044915	0.027437
332	C	0.483365	0.241207	0.69916
333	N	0.485584	0.187786	0.705856
334	O	0.467507	0.173099	0.671448
335	O	0.467821	0.176943	0.741532
336	N	0.448568	0.222549	0.699212
337	C	0.343943	0.646254	0.031354
338	N	0.377596	0.670636	0.031338
339	C	0.388162	0.704573	0.031349
340	N	0.363779	0.713841	0.031335
341	C	0.329843	0.690473	0.031351
342	N	0.320573	0.65682	0.031341
343	C	0.304588	0.699988	0.031216
344	C	0.334427	0.611481	0.031224
345	C	0.422933	0.729828	0.031214
346	H	0.428989	0.754768	0.030589
347	H	0.353311	0.605427	0.030592
348	C	0.310635	0.785217	0.035555
349	N	0.34663	0.804682	0.039184
350	N	0.309489	0.839144	0.03966
351	O	0.361314	0.801288	0.004772
352	O	0.329465	0.853994	0.006896
353	O	0.357475	0.797765	0.074858
354	O	0.325021	0.849418	0.077093
355	N	0.311867	0.732902	0.032547
356	C	0.302692	0.532464	0.36301
357	H	0.328623	0.544915	0.36077
358	C	0.483365	0.741207	0.032495
359	N	0.485586	0.687787	0.03919
360	O	0.467507	0.673098	0.004779
361	O	0.467821	0.676943	0.074865
362	N	0.448567	0.722549	0.032547
363	C	0.343943	0.646254	0.364688
364	N	0.377596	0.670636	0.364671
365	C	0.388162	0.704573	0.364681
366	N	0.363779	0.713841	0.364668
367	C	0.329843	0.690473	0.364685
368	N	0.320573	0.65682	0.364675
369	C	0.304588	0.699988	0.364551
370	C	0.334427	0.611481	0.364558
371	C	0.422933	0.729828	0.364548
372	H	0.428989	0.754768	0.363921
373	H	0.353311	0.605427	0.363924
374	C	0.310635	0.785217	0.368887
375	N	0.34663	0.804682	0.372518
376	N	0.309489	0.839144	0.372994
377	O	0.361314	0.801288	0.338106
378	O	0.329465	0.853994	0.340231
379	O	0.357475	0.797765	0.40819
380	O	0.325021	0.849418	0.410427
381	N	0.311867	0.732902	0.36588
382	C	0.302692	0.532464	0.696341
383	H	0.328623	0.544915	0.694105
384	C	0.483365	0.741207	0.365829
385	N	0.485586	0.687787	0.372525
386	O	0.467507	0.673098	0.338114
387	O	0.467821	0.676943	0.408197
388	N	0.448567	0.722549	0.36588
389	C	0.343943	0.646254	0.69802
390	N	0.377596	0.670636	0.698002
391	C	0.388162	0.704573	0.698016
392	N	0.363779	0.713841	0.698002
393	C	0.329843	0.690473	0.698016
394	N	0.320573	0.65682	0.698006
395	C	0.304588	0.699988	0.697883
396	C	0.334427	0.611481	0.697889
397	C	0.422933	0.729828	0.697879
398	H	0.428989	0.754768	0.697256
399	H	0.353311	0.605427	0.697259
400	C	0.310635	0.785217	0.702222
401	N	0.34663	0.804682	0.705849
402	N	0.309489	0.839144	0.706325
403	O	0.361314	0.801288	0.671441
404	O	0.329465	0.853994	0.673564
405	O	0.357475	0.797765	0.741525
406	O	0.325021	0.849418	0.743758
407	N	0.311867	0.732902	0.699212
408	C	0.302692	0.532464	0.029675
409	H	0.328623	0.544915	0.027437
410	C	0.483365	0.741207	0.69916
411	N	0.485586	0.687787	0.705856
412	O	0.467507	0.673098	0.671448
413	O	0.467821	0.676943	0.741532
414	N	0.448567	0.722549	0.699212
415	C	0.501951	0.277109	0.363006
416	C	0.502116	0.223781	0.035558
417	H	0.4895	0.290591	0.36077
418	C	0.501951	0.277109	0.696341
419	C	0.502116	0.223781	0.368891
420	H	0.4895	0.290591	0.694105
421	C	0.501951	0.277109	0.029674
422	C	0.502116	0.223781	0.702226
423	H	0.4895	0.290591	0.027438
424	C	0.501951	0.77711	0.363006
425	C	0.502116	0.723781	0.035558
426	H	0.489501	0.790592	0.36077
427	C	0.501951	0.77711	0.696341
428	C	0.502116	0.723781	0.368891
429	H	0.489501	0.790592	0.694105
430	C	0.501951	0.77711	0.029674
431	C	0.502116	0.723781	0.702226
432	H	0.489501	0.790592	0.027438
433	C	0.619496	0.294973	0.031735
434	H	0.61593	0.270973	0.031893
435	C	0.557002	0.278362	0.365507
436	C	0.537863	0.295131	0.362856
437	H	0.550137	0.321117	0.360513
438	C	0.538556	0.242148	0.035528
439	N	0.557188	0.224927	0.039668
440	O	0.552061	0.204948	0.006909
441	O	0.55193	0.209397	0.077103
442	N	0.591727	0.299095	0.364681
443	C	0.619496	0.294973	0.365068
444	H	0.61593	0.270973	0.365226
445	C	0.557002	0.278362	0.698838
446	C	0.537863	0.295131	0.696187
447	H	0.550137	0.321117	0.693844
448	C	0.538556	0.242148	0.36886
449	N	0.557188	0.224927	0.373001
450	O	0.552061	0.204948	0.340242
451	O	0.55193	0.209397	0.410434
452	N	0.591727	0.299095	0.698016
453	C	0.619496	0.294973	0.6984
454	H	0.61593	0.270973	0.698561
455	C	0.557002	0.278362	0.032172
456	C	0.537863	0.295131	0.029521
457	H	0.550137	0.321117	0.027179
458	C	0.538556	0.242148	0.702195
459	N	0.557188	0.224927	0.706332
460	O	0.552061	0.204948	0.673575
461	O	0.55193	0.209397	0.743769
462	N	0.591727	0.299095	0.03135
463	C	0.619498	0.794974	0.031735
464	H	0.615932	0.770974	0.031893
465	C	0.557002	0.77836	0.365507
466	C	0.537863	0.795132	0.362856
467	H	0.550138	0.821118	0.360513
468	C	0.538555	0.742147	0.035528
469	N	0.557189	0.724927	0.039668
470	O	0.552062	0.704948	0.006909
471	O	0.551929	0.709396	0.077103
472	N	0.591726	0.799094	0.364681
473	C	0.619498	0.794974	0.365068
474	H	0.615932	0.770974	0.365226
475	C	0.557002	0.77836	0.698838
476	C	0.537863	0.795132	0.696187
477	H	0.550138	0.821118	0.693844
478	C	0.538555	0.742147	0.36886
479	N	0.557189	0.724927	0.373001
480	O	0.552062	0.704948	0.340242
481	O	0.551929	0.709396	0.410434
482	N	0.591726	0.799094	0.698016
483	C	0.619498	0.794974	0.6984
484	H	0.615932	0.770974	0.698561
485	C	0.557002	0.77836	0.032172
486	C	0.537863	0.795132	0.029521
487	H	0.550138	0.821118	0.027179
488	C	0.538555	0.742147	0.702195
489	N	0.557189	0.724927	0.706332
490	O	0.552062	0.704948	0.673575
491	O	0.551929	0.709396	0.743769
492	N	0.591726	0.799094	0.03135
493	C	0.695642	0.380801	0.031383
494	N	0.662451	0.355189	0.03141
495	C	0.653615	0.321725	0.031383
496	N	0.679227	0.314145	0.03141
497	C	0.712692	0.338774	0.031383
498	N	0.72027	0.371963	0.031409
499	C	0.739441	0.331406	0.031733
500	C	0.703009	0.414917	0.031732
501	H	0.682574	0.418484	0.031894
502	H	0.763442	0.351841	0.031891
503	C	0.843944	0.146254	0.031354
504	N	0.877596	0.170636	0.031338
505	C	0.888161	0.204573	0.031349
506	N	0.863778	0.213843	0.031335
507	C	0.829842	0.190472	0.031351
508	N	0.820572	0.15682	0.031341
509	C	0.804587	0.199988	0.031216
510	C	0.834428	0.111483	0.031224
511	C	0.922931	0.229828	0.031214
512	H	0.928989	0.254767	0.030589
513	H	0.853311	0.105427	0.030592
514	H	0.779646	0.181105	0.030598
515	C	0.756054	0.285524	0.365507
516	C	0.739283	0.249615	0.362859
517	C	0.757305	0.231724	0.36301
518	C	0.793207	0.249041	0.032496
519	C	0.810634	0.285219	0.035555
520	H	0.743824	0.205792	0.360777
521	H	0.713297	0.235903	0.360516
522	C	0.792267	0.303291	0.035525
523	N	0.846631	0.304684	0.039184
524	N	0.809488	0.339146	0.03966
525	O	0.861315	0.30129	0.004772
526	O	0.829466	0.353995	0.006896
527	O	0.857475	0.297764	0.074858
528	O	0.825022	0.34942	0.077093
529	N	0.735319	0.299515	0.364681
530	N	0.811867	0.232902	0.032547
531	C	0.748892	0.477414	0.365507
532	C	0.784799	0.496551	0.362852
533	C	0.802691	0.032465	0.36301
534	C	0.785374	0.05105	0.032501
535	C	0.749196	0.0323	0.035566
536	H	0.828623	0.044915	0.36077
537	H	0.798512	0.484276	0.36051
538	C	0.731125	0.495858	0.035534
539	N	0.729733	0.04883	0.039203
540	N	0.695271	0.477226	0.03968
541	O	0.733121	0.066909	0.004796
542	O	0.680415	0.482354	0.006923
543	O	0.736655	0.066593	0.074879
544	O	0.685003	0.482484	0.077118
545	N	0.7349	0.442687	0.364681
546	N	0.801514	0.085848	0.032555
547	C	0.001949	0.277109	0.363006
548	C	0.983365	0.241207	0.032495
549	C	0.002116	0.223781	0.035558
550	H	0.9895	0.290591	0.36077
551	N	0.985584	0.187786	0.03919
552	O	0.967507	0.173099	0.004779
553	O	0.967821	0.176943	0.074865
554	N	0.948566	0.222549	0.032547
555	C	0.695642	0.380801	0.364716
556	N	0.662451	0.355189	0.364743
557	C	0.653615	0.321725	0.364716
558	N	0.679227	0.314145	0.364743
559	C	0.712692	0.338774	0.364716
560	N	0.72027	0.371963	0.364743
561	C	0.739441	0.331406	0.365065
562	C	0.703009	0.414917	0.365065
563	H	0.682574	0.418484	0.365226
564	H	0.763442	0.351841	0.365223
565	C	0.843944	0.146254	0.364688
566	N	0.877596	0.170636	0.364671
567	C	0.888161	0.204573	0.364681
568	N	0.863778	0.213843	0.364668
569	C	0.829842	0.190472	0.364685
570	N	0.820572	0.15682	0.364675
571	C	0.804587	0.199988	0.364551
572	C	0.834428	0.111483	0.364558
573	C	0.922931	0.229828	0.364548
574	H	0.928989	0.254767	0.363921
575	H	0.853311	0.105427	0.363924
576	H	0.779646	0.181105	0.363931
577	C	0.756054	0.285524	0.698838
578	C	0.739283	0.249615	0.696191
579	C	0.757305	0.231724	0.696345
580	C	0.793207	0.249041	0.365829
581	C	0.810634	0.285219	0.368887
582	H	0.743824	0.205792	0.694112
583	H	0.713297	0.235903	0.693851
584	C	0.792267	0.303291	0.368857
585	N	0.846631	0.304684	0.372518
586	N	0.809488	0.339146	0.372994
587	O	0.861315	0.30129	0.338106
588	O	0.829466	0.353995	0.340231
589	O	0.857475	0.297764	0.40819
590	O	0.825022	0.34942	0.410427
591	N	0.735319	0.299515	0.698016
592	N	0.811867	0.232902	0.36588
593	C	0.748892	0.477414	0.698842
594	C	0.784799	0.496551	0.696187
595	C	0.802691	0.032465	0.696341
596	C	0.785374	0.05105	0.365832
597	C	0.749196	0.0323	0.368898
598	H	0.828623	0.044915	0.694105
599	H	0.798512	0.484276	0.693841
600	C	0.731125	0.495858	0.368867
601	N	0.729733	0.04883	0.372535
602	N	0.695271	0.477226	0.373011
603	O	0.733121	0.066909	0.338129
604	O	0.680415	0.482354	0.340258
605	O	0.736655	0.066593	0.408211
606	O	0.685003	0.482484	0.410451
607	N	0.7349	0.442687	0.698013
608	N	0.801514	0.085848	0.365887
609	C	0.001949	0.277109	0.696341
610	C	0.983365	0.241207	0.365829
611	C	0.002116	0.223781	0.368891
612	H	0.9895	0.290591	0.694105
613	N	0.985584	0.187786	0.372525
614	O	0.967507	0.173099	0.338114
615	O	0.967821	0.176943	0.408197
616	N	0.948566	0.222549	0.36588
617	C	0.695642	0.380801	0.69805
618	N	0.662451	0.355189	0.698074
619	C	0.653615	0.321725	0.69805
620	N	0.679227	0.314145	0.698078
621	C	0.712692	0.338774	0.69805
622	N	0.72027	0.371963	0.698074
623	C	0.739441	0.331406	0.6984
624	C	0.703009	0.414917	0.698396
625	H	0.682574	0.418484	0.698561
626	H	0.763442	0.351841	0.698557
627	C	0.843944	0.146254	0.69802
628	N	0.877596	0.170636	0.698002
629	C	0.888161	0.204573	0.698016
630	N	0.863778	0.213843	0.698002
631	C	0.829842	0.190472	0.698016
632	N	0.820572	0.15682	0.698006
633	C	0.804587	0.199988	0.697883
634	C	0.834428	0.111483	0.697889
635	C	0.922931	0.229828	0.697879
636	H	0.928989	0.254767	0.697256
637	H	0.853311	0.105427	0.697259
638	H	0.779646	0.181105	0.697263
639	C	0.756054	0.285524	0.032172
640	C	0.739283	0.249615	0.029525
641	C	0.757305	0.231724	0.029678
642	C	0.793207	0.249041	0.699164
643	C	0.810634	0.285219	0.702222
644	H	0.743824	0.205792	0.027444
645	H	0.713297	0.235903	0.027185
646	C	0.792267	0.303291	0.702191
647	N	0.846631	0.304684	0.705849
648	N	0.809488	0.339146	0.706325
649	O	0.861315	0.30129	0.671441
650	O	0.829466	0.353995	0.673564
651	O	0.857475	0.297764	0.741525
652	O	0.825022	0.34942	0.743758
653	N	0.735319	0.299515	0.03135
654	N	0.811867	0.232902	0.699212
655	C	0.748892	0.477414	0.032174
656	C	0.784799	0.496551	0.029521
657	C	0.802691	0.032465	0.029675
658	C	0.785374	0.05105	0.699167
659	C	0.749196	0.0323	0.702232
660	H	0.828623	0.044915	0.027437
661	H	0.798512	0.484276	0.027175
662	C	0.731125	0.495858	0.702202
663	N	0.729733	0.04883	0.70587
664	N	0.695271	0.477226	0.706346
665	O	0.733121	0.066909	0.671461
666	O	0.680415	0.482354	0.673592
667	O	0.736655	0.066593	0.741546
668	O	0.685003	0.482484	0.743782
669	N	0.7349	0.442687	0.031348
670	N	0.801514	0.085848	0.699222
671	C	0.001949	0.277109	0.029674
672	C	0.983365	0.241207	0.69916
673	C	0.002116	0.223781	0.702226
674	H	0.9895	0.290591	0.027438
675	N	0.985584	0.187786	0.705856
676	O	0.967507	0.173099	0.671448
677	O	0.967821	0.176943	0.741532
678	N	0.948566	0.222549	0.699212
679	C	0.695642	0.880799	0.031383
680	N	0.662452	0.85519	0.03141
681	C	0.653615	0.821724	0.031383
682	N	0.679225	0.814144	0.03141
683	C	0.71269	0.838773	0.031383
684	N	0.720271	0.871964	0.031409
685	C	0.73944	0.831407	0.031733
686	C	0.703008	0.914918	0.031732
687	H	0.682575	0.918482	0.031894
688	H	0.76344	0.85184	0.031891
689	C	0.843942	0.646254	0.031354
690	N	0.877595	0.670636	0.031338
691	C	0.888162	0.704573	0.031349
692	N	0.863778	0.713841	0.031335
693	C	0.829843	0.690473	0.031351
694	N	0.820574	0.65682	0.031341
695	C	0.804588	0.699988	0.031216
696	C	0.834426	0.611481	0.031224
697	C	0.922933	0.729828	0.031214
698	H	0.928988	0.754768	0.030589
699	H	0.85331	0.605427	0.030592
700	H	0.779648	0.681105	0.030598
701	C	0.756054	0.785523	0.365507
702	C	0.739284	0.749614	0.362859
703	C	0.757304	0.731723	0.36301
704	C	0.793208	0.749042	0.032496
705	C	0.810635	0.785217	0.035555
706	H	0.743823	0.705793	0.360777
707	H	0.713298	0.735904	0.360516
708	C	0.792267	0.80329	0.035525
709	N	0.846629	0.804682	0.039184
710	N	0.809489	0.839144	0.03966
711	O	0.861313	0.801288	0.004772
712	O	0.829464	0.853994	0.006896
713	O	0.857474	0.797765	0.074858
714	O	0.82502	0.849418	0.077093
715	N	0.735319	0.799514	0.364681
716	N	0.811865	0.732902	0.032547
717	C	0.74889	0.977413	0.365507
718	C	0.784801	0.996552	0.362852
719	C	0.802692	0.532464	0.36301
720	C	0.785374	0.551049	0.032501
721	C	0.749197	0.532299	0.035566
722	H	0.828622	0.544915	0.36077
723	H	0.798511	0.984277	0.36051
724	C	0.731124	0.995859	0.035534
725	N	0.729732	0.548828	0.039203
726	N	0.695271	0.977227	0.03968
727	O	0.733122	0.566909	0.004796
728	O	0.680416	0.982352	0.006923
729	O	0.736656	0.566593	0.074879
730	O	0.685003	0.982485	0.077118
731	N	0.7349	0.942688	0.364681
732	N	0.801512	0.585847	0.032555
733	C	0.001951	0.77711	0.363006
734	C	0.983364	0.741207	0.032495
735	C	0.002115	0.723781	0.035558
736	H	0.989501	0.790592	0.36077
737	N	0.985586	0.687787	0.03919
738	O	0.967505	0.673098	0.004779
739	O	0.96782	0.676943	0.074865
740	N	0.948567	0.722549	0.032547
741	C	0.695642	0.880799	0.364716
742	N	0.662452	0.85519	0.364743
743	C	0.653615	0.821724	0.364716
744	N	0.679225	0.814144	0.364743
745	C	0.71269	0.838773	0.364716
746	N	0.720271	0.871964	0.364743
747	C	0.73944	0.831407	0.365065
748	C	0.703008	0.914918	0.365065
749	H	0.682575	0.918482	0.365226
750	H	0.76344	0.85184	0.365223
751	C	0.843942	0.646254	0.364688
752	N	0.877595	0.670636	0.364671
753	C	0.888162	0.704573	0.364681
754	N	0.863778	0.713841	0.364668
755	C	0.829843	0.690473	0.364685
756	N	0.820574	0.65682	0.364675
757	C	0.804588	0.699988	0.364551
758	C	0.834426	0.611481	0.364558
759	C	0.922933	0.729828	0.364548
760	H	0.928988	0.754768	0.363921
761	H	0.85331	0.605427	0.363924
762	H	0.779648	0.681105	0.363931
763	C	0.756054	0.785523	0.698838
764	C	0.739284	0.749614	0.696191
765	C	0.757304	0.731723	0.696345
766	C	0.793208	0.749042	0.365829
767	C	0.810635	0.785217	0.368887
768	H	0.743823	0.705793	0.694112
769	H	0.713298	0.735904	0.693851
770	C	0.792267	0.80329	0.368857
771	N	0.846629	0.804682	0.372518
772	N	0.809489	0.839144	0.372994
773	O	0.861313	0.801288	0.338106
774	O	0.829464	0.853994	0.340231
775	O	0.857474	0.797765	0.40819
776	O	0.82502	0.849418	0.410427
777	N	0.735319	0.799514	0.698016
778	N	0.811865	0.732902	0.36588
779	C	0.74889	0.977413	0.698842
780	C	0.784801	0.996552	0.696187
781	C	0.802692	0.532464	0.696341
782	C	0.785374	0.551049	0.365832
783	C	0.749197	0.532299	0.368898
784	H	0.828622	0.544915	0.694105
785	H	0.798511	0.984277	0.693841
786	C	0.731124	0.995859	0.368867
787	N	0.729732	0.548828	0.372535
788	N	0.695271	0.977227	0.373011
789	O	0.733122	0.566909	0.338129
790	O	0.680416	0.982352	0.340258
791	O	0.736656	0.566593	0.408211
792	O	0.685003	0.982485	0.410451
793	N	0.7349	0.942688	0.698013
794	N	0.801512	0.585847	0.365887
795	C	0.001951	0.77711	0.696341
796	C	0.983364	0.741207	0.365829
797	C	0.002115	0.723781	0.368891
798	H	0.989501	0.790592	0.694105
799	N	0.985586	0.687787	0.372525
800	O	0.967505	0.673098	0.338114
801	O	0.96782	0.676943	0.408197
802	N	0.948567	0.722549	0.36588
803	C	0.695642	0.880799	0.69805
804	N	0.662452	0.85519	0.698074
805	C	0.653615	0.821724	0.69805
806	N	0.679225	0.814144	0.698078
807	C	0.71269	0.838773	0.69805
808	N	0.720271	0.871964	0.698074
809	C	0.73944	0.831407	0.6984
810	C	0.703008	0.914918	0.698396
811	H	0.682575	0.918482	0.698561
812	H	0.76344	0.85184	0.698557
813	C	0.843942	0.646254	0.69802
814	N	0.877595	0.670636	0.698002
815	C	0.888162	0.704573	0.698016
816	N	0.863778	0.713841	0.698002
817	C	0.829843	0.690473	0.698016
818	N	0.820574	0.65682	0.698006
819	C	0.804588	0.699988	0.697883
820	C	0.834426	0.611481	0.697889
821	C	0.922933	0.729828	0.697879
822	H	0.928988	0.754768	0.697256
823	H	0.85331	0.605427	0.697259
824	H	0.779648	0.681105	0.697263
825	C	0.756054	0.785523	0.032172
826	C	0.739284	0.749614	0.029525
827	C	0.757304	0.731723	0.029678
828	C	0.793208	0.749042	0.699164
829	C	0.810635	0.785217	0.702222
830	H	0.743823	0.705793	0.027444
831	H	0.713298	0.735904	0.027185
832	C	0.792267	0.80329	0.702191
833	N	0.846629	0.804682	0.705849
834	N	0.809489	0.839144	0.706325
835	O	0.861313	0.801288	0.671441
836	O	0.829464	0.853994	0.673564
837	O	0.857474	0.797765	0.741525
838	O	0.82502	0.849418	0.743758
839	N	0.735319	0.799514	0.03135
840	N	0.811865	0.732902	0.699212
841	C	0.74889	0.977413	0.032174
842	C	0.784801	0.996552	0.029521
843	C	0.802692	0.532464	0.029675
844	C	0.785374	0.551049	0.699167
845	C	0.749197	0.532299	0.702232
846	H	0.828622	0.544915	0.027437
847	H	0.798511	0.984277	0.027175
848	C	0.731124	0.995859	0.702202
849	N	0.729732	0.548828	0.70587
850	N	0.695271	0.977227	0.706346
851	O	0.733122	0.566909	0.671461
852	O	0.680416	0.982352	0.673592
853	O	0.736656	0.566593	0.741546
854	O	0.685003	0.982485	0.743782
855	N	0.7349	0.942688	0.031348
856	N	0.801512	0.585847	0.699222
857	C	0.001951	0.77711	0.029674
858	C	0.983364	0.741207	0.69916
859	C	0.002115	0.723781	0.702226
860	H	0.989501	0.790592	0.027438
861	N	0.985586	0.687787	0.705856
862	O	0.967505	0.673098	0.671448
863	O	0.96782	0.676943	0.741532
864	N	0.948567	0.722549	0.699212
