data_C504H288N288_2018-02-15_10:38:17
#******************************************
#
# CIF file created by Zeo++
# Zeo++ is an open source package to
# analyze microporous materials
#
#*******************************************

_cell_length_a		44.7338   
_cell_length_b		44.7385   
_cell_length_c		29.7114   
_cell_angle_alpha		90   
_cell_angle_beta		90   
_cell_angle_gamma		120.01   

_symmetry_space_group_name_H-M		'P1'
_symmetry_Int_Tables_number		1
_symmetry_cell_setting		Monoclinic

loop_
_symmetry_equiv_pos_as_xyz
'+x,+y,+z'

loop_
_atom_site_label
_atom_site_type_symbol
_atom_site_fract_x
_atom_site_fract_y
_atom_site_fract_z
1	N	0.020393	0.037937	0.994111
2	C	0.040575	0.023113	0.99403
3	N	0.023314	0.487907	0.994074
4	C	0.098171	0.079441	0.321487
5	C	0.077804	0.042886	0.327437
6	C	0.097128	0.025864	0.00022
7	H	0.085215	0.999825	0.004936
8	C	0.084349	0.102935	0.3137
9	H	0.067696	0.094714	0.284083
10	H	0.069808	0.102932	0.343138
11	N	0.020393	0.037937	0.327446
12	C	0.040575	0.023113	0.327365
13	N	0.023314	0.487907	0.32741
14	C	0.098171	0.079441	0.65482
15	C	0.077804	0.042886	0.660771
16	C	0.097128	0.025864	0.333556
17	H	0.085215	0.999825	0.338268
18	C	0.084349	0.102935	0.647032
19	H	0.067696	0.094714	0.617417
20	H	0.069808	0.102932	0.676468
21	N	0.020393	0.037937	0.660781
22	C	0.040575	0.023113	0.660697
23	N	0.023314	0.487907	0.660744
24	C	0.098171	0.079441	0.988154
25	C	0.077804	0.042886	0.994105
26	C	0.097128	0.025864	0.66689
27	H	0.085215	0.999825	0.671602
28	C	0.084349	0.102935	0.980366
29	H	0.067696	0.094714	0.950747
30	H	0.069808	0.102932	0.009804
31	N	0.020393	0.537937	0.994111
32	C	0.040575	0.523113	0.99403
33	N	0.023314	0.987907	0.994074
34	C	0.098171	0.579441	0.321487
35	C	0.077804	0.542885	0.327437
36	C	0.097128	0.525864	0.00022
37	H	0.085215	0.499825	0.004936
38	C	0.084349	0.602935	0.3137
39	H	0.067697	0.594714	0.284083
40	H	0.069808	0.60293	0.343138
41	N	0.020393	0.537937	0.327446
42	C	0.040575	0.523113	0.327365
43	N	0.023314	0.987907	0.32741
44	C	0.098171	0.579441	0.65482
45	C	0.077804	0.542885	0.660771
46	C	0.097128	0.525864	0.333556
47	H	0.085215	0.499825	0.338268
48	C	0.084349	0.602935	0.647032
49	H	0.067697	0.594714	0.617417
50	H	0.069808	0.60293	0.676468
51	N	0.020393	0.537937	0.660781
52	C	0.040575	0.523113	0.660697
53	N	0.023314	0.987907	0.660744
54	C	0.098171	0.579441	0.988154
55	C	0.077804	0.542885	0.994105
56	C	0.097128	0.525864	0.66689
57	H	0.085215	0.499825	0.671602
58	C	0.084349	0.602935	0.980366
59	H	0.067697	0.594714	0.950747
60	H	0.069808	0.60293	0.009804
61	H	0.008507	0.087929	0.004891
62	C	0.024367	0.423979	0.313605
63	H	0.0328	0.440644	0.283999
64	H	0.030351	0.403404	0.30789
65	H	0.038907	0.438512	0.343047
66	H	0.008507	0.087929	0.338224
67	C	0.024367	0.423979	0.646938
68	H	0.0328	0.440644	0.617333
69	H	0.030351	0.403404	0.641223
70	H	0.038907	0.438512	0.676381
71	H	0.008507	0.087929	0.671558
72	C	0.024367	0.423979	0.980271
73	H	0.0328	0.440644	0.950667
74	H	0.030351	0.403404	0.974556
75	H	0.038907	0.438512	0.009716
76	H	0.008505	0.587928	0.004891
77	C	0.024366	0.923979	0.313605
78	H	0.0328	0.940644	0.283999
79	H	0.03035	0.903404	0.30789
80	H	0.038907	0.938512	0.343051
81	H	0.008505	0.587928	0.338224
82	C	0.024366	0.923979	0.646938
83	H	0.0328	0.940644	0.617333
84	H	0.03035	0.903404	0.641223
85	H	0.038907	0.938512	0.676381
86	H	0.008505	0.587928	0.671558
87	C	0.024366	0.923979	0.980271
88	H	0.0328	0.940644	0.950667
89	H	0.03035	0.903404	0.974556
90	H	0.038907	0.938512	0.009716
91	N	0.132162	0.043325	0.000604
92	C	0.150966	0.078031	0.328531
93	N	0.133284	0.095038	0.322427
94	H	0.104935	0.129499	0.308005
95	N	0.132162	0.043325	0.333938
96	C	0.150966	0.078031	0.661865
97	N	0.133284	0.095038	0.655759
98	H	0.104935	0.129499	0.641337
99	N	0.132162	0.043325	0.66727
100	C	0.150966	0.078031	0.995195
101	N	0.133284	0.095038	0.989093
102	H	0.104935	0.129499	0.974671
103	N	0.132162	0.543326	0.000604
104	C	0.150966	0.578031	0.328531
105	N	0.133283	0.595037	0.322427
106	H	0.104935	0.629499	0.308005
107	N	0.132162	0.543326	0.333938
108	C	0.150966	0.578031	0.661865
109	N	0.133283	0.595037	0.655759
110	H	0.104935	0.629499	0.641337
111	N	0.132162	0.543326	0.66727
112	C	0.150966	0.578031	0.995195
113	N	0.133283	0.595037	0.989093
114	H	0.104935	0.629499	0.974671
115	N	0.205742	0.131237	0.995808
116	C	0.187512	0.09594	0.995969
117	N	0.205239	0.078379	0.997056
118	N	0.205742	0.131237	0.32914
119	C	0.187512	0.09594	0.329305
120	N	0.205239	0.078379	0.33039
121	N	0.205742	0.131237	0.662474
122	C	0.187512	0.09594	0.662639
123	N	0.205239	0.078379	0.663723
124	N	0.205742	0.631236	0.995808
125	C	0.187511	0.59594	0.995969
126	N	0.205239	0.57838	0.997056
127	N	0.205742	0.631236	0.32914
128	C	0.187511	0.59594	0.329305
129	N	0.205239	0.57838	0.33039
130	N	0.205742	0.631236	0.662474
131	C	0.187511	0.59594	0.662639
132	N	0.205239	0.57838	0.663723
133	C	0.488298	0.467721	0.993997
134	N	0.470351	0.484975	0.994081
135	C	0.485184	0.019987	0.994037
136	C	0.240824	0.148703	0.996821
137	C	0.240352	0.095569	0.997854
138	N	0.257498	0.130496	0.997851
139	C	0.359648	0.094665	0.996767
140	N	0.377106	0.07705	0.995777
141	C	0.412407	0.09412	0.995959
142	N	0.429978	0.129414	0.997087
143	C	0.412792	0.147334	0.997915
144	N	0.377862	0.129546	0.997874
145	C	0.413712	0.267519	0.996767
146	N	0.431304	0.302596	0.99569
147	C	0.414209	0.320796	0.995878
148	N	0.378914	0.303042	0.997063
149	C	0.361017	0.267932	0.997941
150	N	0.378827	0.25082	0.997898
151	C	0.428861	0.021258	0.321519
152	C	0.465422	0.037447	0.327445
153	C	0.482462	0.073801	0.000186
154	N	0.465013	0.091379	0.000567
155	C	0.430303	0.075477	0.328521
156	N	0.413278	0.04078	0.322451
157	H	0.508506	0.087929	0.004891
158	C	0.405346	0.983932	0.31379
159	H	0.413532	0.975478	0.284164
160	H	0.378776	0.977948	0.308139
161	H	0.405377	0.969415	0.343232
162	C	0.487042	0.410146	0.321395
163	C	0.470845	0.430497	0.327372
164	C	0.434491	0.411161	0.000153
165	N	0.416921	0.376128	0.00052
166	C	0.432832	0.357339	0.328422
167	N	0.467528	0.375036	0.322317
168	H	0.420357	0.423063	0.004882
169	C	0.524366	0.423979	0.313605
170	H	0.5328	0.440644	0.283999
171	H	0.53035	0.403404	0.30789
172	H	0.538907	0.438512	0.343047
173	C	0.277599	0.079029	0.039234
174	C	0.261089	0.079985	0.99881
175	C	0.277332	0.07984	0.291348
176	N	0.308321	0.081202	0.291883
177	C	0.323659	0.079691	0.997218
178	N	0.308445	0.07997	0.036614
179	H	0.268824	0.083841	0.261208
180	C	0.265947	0.081437	0.085039
181	H	0.240801	0.079826	0.085007
182	H	0.284713	0.105871	0.100449
183	H	0.26389	0.06028	0.105619
184	C	0.428739	0.200936	0.039345
185	C	0.428351	0.183642	0.998988
186	C	0.42898	0.20025	0.291504
187	N	0.427711	0.229927	0.291824
188	C	0.428735	0.246538	0.99714
189	N	0.427892	0.230879	0.036626
190	H	0.425526	0.187906	0.261334
191	C	0.425858	0.186716	0.085157
192	H	0.427489	0.163193	0.085261
193	H	0.401256	0.180967	0.100098
194	H	0.44679	0.205758	0.106084
195	C	0.307459	0.230324	0.039444
196	C	0.324686	0.247144	0.999032
197	C	0.308127	0.231237	0.291523
198	N	0.278421	0.200302	0.291869
199	C	0.261835	0.184707	0.997211
200	N	0.27752	0.199514	0.036706
201	H	0.320416	0.240139	0.261319
202	C	0.321752	0.241607	0.085238
203	H	0.345281	0.266763	0.085332
204	H	0.327515	0.222734	0.100069
205	H	0.302745	0.243474	0.106263
206	C	0.488298	0.467721	0.327331
207	N	0.470351	0.484975	0.327414
208	C	0.485184	0.019987	0.327372
209	C	0.240824	0.148703	0.330156
210	C	0.240352	0.095569	0.331187
211	N	0.257498	0.130496	0.331185
212	C	0.359648	0.094665	0.330102
213	N	0.377106	0.07705	0.329112
214	C	0.412407	0.09412	0.329292
215	N	0.429978	0.129414	0.330419
216	C	0.412792	0.147334	0.33125
217	N	0.377862	0.129546	0.331207
218	C	0.413712	0.267519	0.330099
219	N	0.431304	0.302596	0.329023
220	C	0.414209	0.320796	0.329213
221	N	0.378914	0.303042	0.330398
222	C	0.361017	0.267932	0.331277
223	N	0.378827	0.25082	0.331231
224	C	0.428861	0.021258	0.65485
225	C	0.465422	0.037447	0.660778
226	C	0.482462	0.073801	0.33352
227	N	0.465013	0.091379	0.333902
228	C	0.430303	0.075477	0.661855
229	N	0.413278	0.04078	0.655783
230	H	0.508506	0.087929	0.338224
231	C	0.405346	0.983932	0.647123
232	H	0.413532	0.975478	0.617498
233	H	0.378776	0.977948	0.641472
234	H	0.405377	0.969415	0.676566
235	C	0.487042	0.410146	0.654726
236	C	0.470845	0.430497	0.660707
237	C	0.434491	0.411161	0.333486
238	N	0.416921	0.376128	0.333852
239	C	0.432832	0.357339	0.661754
240	N	0.467528	0.375036	0.655652
241	H	0.420357	0.423063	0.338214
242	C	0.524366	0.423979	0.646938
243	H	0.5328	0.440644	0.617333
244	H	0.53035	0.403404	0.641223
245	H	0.538907	0.438512	0.676381
246	C	0.277599	0.079029	0.372568
247	C	0.261089	0.079985	0.332144
248	C	0.277332	0.07984	0.62468
249	N	0.308321	0.081202	0.625215
250	C	0.323659	0.079691	0.330553
251	N	0.308445	0.07997	0.369946
252	H	0.268824	0.083841	0.59454
253	C	0.265947	0.081437	0.418372
254	H	0.240801	0.079826	0.418342
255	H	0.284713	0.105871	0.433784
256	H	0.26389	0.06028	0.438953
257	C	0.428739	0.200936	0.372679
258	C	0.428351	0.183642	0.332321
259	C	0.42898	0.20025	0.624835
260	N	0.427711	0.229927	0.625158
261	C	0.428735	0.246538	0.330475
262	N	0.427892	0.230879	0.369959
263	H	0.425526	0.187906	0.594668
264	C	0.425858	0.186716	0.41849
265	H	0.427489	0.163193	0.418594
266	H	0.401256	0.180967	0.43343
267	H	0.44679	0.205758	0.439418
268	C	0.307459	0.230324	0.372777
269	C	0.324686	0.247144	0.332367
270	C	0.308127	0.231237	0.624855
271	N	0.278421	0.200302	0.625202
272	C	0.261835	0.184707	0.330547
273	N	0.27752	0.199514	0.37004
274	H	0.320416	0.240139	0.594651
275	C	0.321752	0.241607	0.418571
276	H	0.345281	0.266763	0.418665
277	H	0.327515	0.222734	0.433403
278	H	0.302745	0.243474	0.439596
279	C	0.488298	0.467721	0.660663
280	N	0.470351	0.484975	0.660747
281	C	0.485184	0.019987	0.660707
282	C	0.240824	0.148703	0.66349
283	C	0.240352	0.095569	0.66452
284	N	0.257498	0.130496	0.664517
285	C	0.359648	0.094665	0.663436
286	N	0.377106	0.07705	0.662447
287	C	0.412407	0.09412	0.662625
288	N	0.429978	0.129414	0.663753
289	C	0.412792	0.147334	0.664584
290	N	0.377862	0.129546	0.66454
291	C	0.413712	0.267519	0.663433
292	N	0.431304	0.302596	0.662356
293	C	0.414209	0.320796	0.662545
294	N	0.378914	0.303042	0.663729
295	C	0.361017	0.267932	0.664611
296	N	0.378827	0.25082	0.664564
297	C	0.428861	0.021258	0.988184
298	C	0.465422	0.037447	0.994111
299	C	0.482462	0.073801	0.666853
300	N	0.465013	0.091379	0.667236
301	C	0.430303	0.075477	0.995185
302	N	0.413278	0.04078	0.989117
303	H	0.508506	0.087929	0.671558
304	C	0.405346	0.983932	0.980457
305	H	0.413532	0.975478	0.950828
306	H	0.378776	0.977948	0.974806
307	H	0.405377	0.969415	0.0099
308	C	0.487042	0.410146	0.98806
309	C	0.470845	0.430497	0.994037
310	C	0.434491	0.411161	0.666819
311	N	0.416921	0.376128	0.667186
312	C	0.432832	0.357339	0.995087
313	N	0.467528	0.375036	0.988982
314	H	0.420357	0.423063	0.671548
315	C	0.524366	0.423979	0.980271
316	H	0.5328	0.440644	0.950667
317	H	0.53035	0.403404	0.974556
318	H	0.538907	0.438512	0.009716
319	C	0.277599	0.079029	0.705898
320	C	0.261089	0.079985	0.665476
321	C	0.277332	0.07984	0.958014
322	N	0.308321	0.081202	0.958549
323	C	0.323659	0.079691	0.663887
324	N	0.308445	0.07997	0.70328
325	H	0.268824	0.083841	0.927874
326	C	0.265947	0.081437	0.751706
327	H	0.240801	0.079826	0.751672
328	H	0.284713	0.105871	0.767114
329	H	0.26389	0.06028	0.772284
330	C	0.428739	0.200936	0.706009
331	C	0.428351	0.183642	0.665654
332	C	0.42898	0.20025	0.958169
333	N	0.427711	0.229927	0.958489
334	C	0.428735	0.246538	0.663807
335	N	0.427892	0.230879	0.703293
336	H	0.425526	0.187906	0.927999
337	C	0.425858	0.186716	0.751823
338	H	0.427489	0.163193	0.751928
339	H	0.401256	0.180967	0.766764
340	H	0.44679	0.205758	0.772752
341	C	0.307459	0.230324	0.70611
342	C	0.324686	0.247144	0.665698
343	C	0.308127	0.231237	0.958189
344	N	0.278421	0.200302	0.958536
345	C	0.261835	0.184707	0.663881
346	N	0.27752	0.199514	0.703371
347	H	0.320416	0.240139	0.927985
348	C	0.321752	0.241607	0.751904
349	H	0.345281	0.266763	0.751999
350	H	0.327515	0.222734	0.766734
351	H	0.302745	0.243474	0.77293
352	C	0.488299	0.967721	0.993997
353	N	0.47035	0.984975	0.994081
354	C	0.485184	0.519987	0.994037
355	C	0.240824	0.648704	0.996821
356	C	0.240352	0.595569	0.997854
357	N	0.257497	0.630496	0.997851
358	C	0.359647	0.594665	0.996767
359	N	0.377107	0.577051	0.995777
360	C	0.412406	0.59412	0.995959
361	N	0.429978	0.629414	0.997087
362	C	0.412791	0.647333	0.997915
363	N	0.377862	0.629546	0.997874
364	C	0.413713	0.767519	0.996763
365	N	0.431303	0.802596	0.99569
366	C	0.414209	0.820796	0.995878
367	N	0.378915	0.803042	0.997063
368	C	0.361016	0.767932	0.997941
369	N	0.378828	0.750821	0.997898
370	C	0.428862	0.521259	0.321519
371	C	0.465421	0.537446	0.327445
372	C	0.482463	0.573801	0.000186
373	N	0.465013	0.591379	0.000567
374	C	0.430302	0.575476	0.328521
375	N	0.413278	0.540781	0.322451
376	H	0.508506	0.587928	0.004891
377	C	0.405346	0.483932	0.31379
378	H	0.413533	0.475478	0.284164
379	H	0.378776	0.477948	0.30814
380	H	0.405377	0.469415	0.343232
381	C	0.487041	0.910144	0.321395
382	C	0.470844	0.930497	0.327372
383	C	0.43449	0.911161	0.000153
384	N	0.41692	0.876128	0.00052
385	C	0.432832	0.857339	0.328422
386	N	0.467529	0.875036	0.322317
387	H	0.420357	0.923063	0.004882
388	C	0.524366	0.923979	0.313605
389	H	0.532799	0.940644	0.283999
390	H	0.53035	0.903404	0.30789
391	H	0.538906	0.938512	0.343051
392	C	0.277598	0.579028	0.039234
393	C	0.261088	0.579985	0.99881
394	C	0.277331	0.579841	0.291348
395	N	0.30832	0.581201	0.291883
396	C	0.323659	0.579691	0.997218
397	N	0.308445	0.57997	0.036614
398	H	0.268825	0.583842	0.261208
399	C	0.265948	0.581436	0.085039
400	H	0.2408	0.579825	0.085007
401	H	0.284712	0.60587	0.100449
402	H	0.26389	0.56028	0.105619
403	C	0.428739	0.700936	0.039345
404	C	0.428351	0.683641	0.998988
405	C	0.428978	0.700249	0.291504
406	N	0.42771	0.729926	0.291824
407	C	0.428734	0.746539	0.99714
408	N	0.427891	0.730878	0.036626
409	H	0.425526	0.687905	0.261334
410	C	0.425859	0.686715	0.085157
411	H	0.427489	0.663192	0.085261
412	H	0.401256	0.680967	0.100098
413	H	0.446791	0.705757	0.106084
414	C	0.307459	0.730323	0.039444
415	C	0.324685	0.747143	0.999032
416	C	0.308127	0.731237	0.291523
417	N	0.278421	0.700303	0.291869
418	C	0.261835	0.684707	0.997211
419	N	0.277519	0.699513	0.036706
420	H	0.320416	0.74014	0.261319
421	C	0.321752	0.741608	0.085238
422	H	0.345281	0.766763	0.085332
423	H	0.327515	0.722734	0.100069
424	H	0.302745	0.743475	0.106263
425	C	0.488299	0.967721	0.327331
426	N	0.47035	0.984975	0.327414
427	C	0.485184	0.519987	0.327372
428	C	0.240824	0.648704	0.330156
429	C	0.240352	0.595569	0.331187
430	N	0.257497	0.630496	0.331185
431	C	0.359647	0.594665	0.330102
432	N	0.377107	0.577051	0.329112
433	C	0.412406	0.59412	0.329292
434	N	0.429978	0.629414	0.330419
435	C	0.412791	0.647333	0.33125
436	N	0.377862	0.629546	0.331207
437	C	0.413713	0.767519	0.330099
438	N	0.431303	0.802596	0.329023
439	C	0.414209	0.820796	0.329213
440	N	0.378915	0.803042	0.330398
441	C	0.361016	0.767932	0.331277
442	N	0.378828	0.750821	0.331231
443	C	0.428862	0.521259	0.65485
444	C	0.465421	0.537446	0.660778
445	C	0.482463	0.573801	0.33352
446	N	0.465013	0.591379	0.333902
447	C	0.430302	0.575476	0.661855
448	N	0.413278	0.540781	0.655783
449	H	0.508506	0.587928	0.338224
450	C	0.405346	0.483932	0.647123
451	H	0.413533	0.475478	0.617498
452	H	0.378776	0.477948	0.641472
453	H	0.405377	0.469415	0.676566
454	C	0.487041	0.910144	0.654726
455	C	0.470844	0.930497	0.660707
456	C	0.43449	0.911161	0.333486
457	N	0.41692	0.876128	0.333852
458	C	0.432832	0.857339	0.661754
459	N	0.467529	0.875036	0.655652
460	H	0.420357	0.923063	0.338214
461	C	0.524366	0.923979	0.646938
462	H	0.532799	0.940644	0.617333
463	H	0.53035	0.903404	0.641223
464	H	0.538906	0.938512	0.676381
465	C	0.277598	0.579028	0.372568
466	C	0.261088	0.579985	0.332144
467	C	0.277331	0.579841	0.62468
468	N	0.30832	0.581201	0.625215
469	C	0.323659	0.579691	0.330553
470	N	0.308445	0.57997	0.369946
471	H	0.268825	0.583842	0.59454
472	C	0.265948	0.581436	0.418372
473	H	0.2408	0.579825	0.418342
474	H	0.284712	0.60587	0.433784
475	H	0.26389	0.56028	0.438953
476	C	0.428739	0.700936	0.372679
477	C	0.428351	0.683641	0.332321
478	C	0.428978	0.700249	0.624835
479	N	0.42771	0.729926	0.625158
480	C	0.428734	0.746539	0.330475
481	N	0.427891	0.730878	0.369959
482	H	0.425526	0.687905	0.594668
483	C	0.425859	0.686715	0.41849
484	H	0.427489	0.663192	0.418594
485	H	0.401256	0.680967	0.43343
486	H	0.446791	0.705757	0.439418
487	C	0.307459	0.730323	0.372777
488	C	0.324685	0.747143	0.332367
489	C	0.308127	0.731237	0.624855
490	N	0.278421	0.700303	0.625202
491	C	0.261835	0.684707	0.330547
492	N	0.277519	0.699513	0.37004
493	H	0.320416	0.74014	0.594651
494	C	0.321752	0.741608	0.418571
495	H	0.345281	0.766763	0.418665
496	H	0.327515	0.722734	0.433403
497	H	0.302745	0.743475	0.439596
498	C	0.488299	0.967721	0.660663
499	N	0.47035	0.984975	0.660747
500	C	0.485184	0.519987	0.660707
501	C	0.240824	0.648704	0.663487
502	C	0.240352	0.595569	0.66452
503	N	0.257497	0.630496	0.664517
504	C	0.359647	0.594665	0.663436
505	N	0.377107	0.577051	0.662447
506	C	0.412406	0.59412	0.662625
507	N	0.429978	0.629414	0.663753
508	C	0.412791	0.647333	0.664584
509	N	0.377862	0.629546	0.66454
510	C	0.413713	0.767519	0.663433
511	N	0.431303	0.802596	0.662356
512	C	0.414209	0.820796	0.662545
513	N	0.378915	0.803042	0.663729
514	C	0.361016	0.767932	0.664611
515	N	0.378828	0.750821	0.664564
516	C	0.428862	0.521259	0.988184
517	C	0.465421	0.537446	0.994111
518	C	0.482463	0.573801	0.666853
519	N	0.465013	0.591379	0.667236
520	C	0.430302	0.575476	0.995185
521	N	0.413278	0.540781	0.989117
522	H	0.508506	0.587928	0.671558
523	C	0.405346	0.483932	0.980457
524	H	0.413533	0.475478	0.950828
525	H	0.378776	0.477948	0.974806
526	H	0.405377	0.469415	0.0099
527	C	0.487041	0.910144	0.98806
528	C	0.470844	0.930497	0.994037
529	C	0.43449	0.911161	0.666819
530	N	0.41692	0.876128	0.667186
531	C	0.432832	0.857339	0.995087
532	N	0.467529	0.875036	0.988982
533	H	0.420357	0.923063	0.671548
534	C	0.524366	0.923979	0.980271
535	H	0.532799	0.940644	0.950667
536	H	0.53035	0.903404	0.974556
537	H	0.538906	0.938512	0.009716
538	C	0.277598	0.579028	0.705898
539	C	0.261088	0.579985	0.665476
540	C	0.277331	0.579841	0.958014
541	N	0.30832	0.581201	0.958549
542	C	0.323659	0.579691	0.663887
543	N	0.308445	0.57997	0.70328
544	H	0.268825	0.583842	0.927874
545	C	0.265948	0.581436	0.751706
546	H	0.2408	0.579825	0.751672
547	H	0.284712	0.60587	0.767114
548	H	0.26389	0.56028	0.772284
549	C	0.428739	0.700936	0.706009
550	C	0.428351	0.683641	0.665654
551	C	0.428978	0.700249	0.958169
552	N	0.42771	0.729926	0.958489
553	C	0.428734	0.746539	0.663807
554	N	0.427891	0.730878	0.703293
555	H	0.425526	0.687905	0.927999
556	C	0.425859	0.686715	0.751823
557	H	0.427489	0.663192	0.751928
558	H	0.401256	0.680967	0.766764
559	H	0.446791	0.705757	0.772752
560	C	0.307459	0.730323	0.70611
561	C	0.324685	0.747143	0.665698
562	C	0.308127	0.731237	0.958189
563	N	0.278421	0.700303	0.958536
564	C	0.261835	0.684707	0.663881
565	N	0.277519	0.699513	0.703371
566	H	0.320416	0.74014	0.927985
567	C	0.321752	0.741608	0.751904
568	H	0.345281	0.766763	0.751999
569	H	0.327515	0.722734	0.766734
570	H	0.302745	0.743475	0.77293
571	C	0.988298	0.467721	0.993997
572	N	0.970351	0.484975	0.994081
573	C	0.985184	0.019987	0.994037
574	N	0.520393	0.037937	0.994111
575	C	0.540575	0.023113	0.99403
576	N	0.523314	0.487907	0.994074
577	C	0.740824	0.148703	0.996821
578	N	0.705743	0.131237	0.995808
579	C	0.687511	0.09594	0.995969
580	N	0.705239	0.078379	0.997056
581	C	0.740352	0.095569	0.997854
582	N	0.757498	0.130496	0.997851
583	C	0.859646	0.094665	0.996767
584	N	0.877106	0.07705	0.995777
585	C	0.912407	0.09412	0.995959
586	N	0.929978	0.129414	0.997087
587	C	0.912792	0.147334	0.997915
588	N	0.877862	0.129546	0.997874
589	C	0.913712	0.267519	0.996767
590	N	0.931302	0.302596	0.99569
591	C	0.914209	0.320796	0.995878
592	N	0.878914	0.303042	0.997063
593	C	0.861017	0.267932	0.997941
594	N	0.878827	0.25082	0.997898
595	C	0.598171	0.079441	0.321487
596	C	0.577805	0.042886	0.327437
597	C	0.597126	0.025864	0.00022
598	N	0.632161	0.043325	0.000604
599	C	0.650965	0.078031	0.328531
600	N	0.633283	0.095038	0.322427
601	H	0.585214	0.999825	0.004936
602	C	0.584349	0.102935	0.3137
603	H	0.567696	0.094714	0.284083
604	H	0.604936	0.129499	0.308005
605	H	0.569808	0.102932	0.343138
606	C	0.928861	0.021258	0.321519
607	C	0.96542	0.037447	0.327445
608	C	0.982462	0.073801	0.000186
609	N	0.965013	0.091379	0.000567
610	C	0.930303	0.075477	0.328521
611	N	0.913278	0.04078	0.322451
612	C	0.905346	0.983932	0.31379
613	H	0.913533	0.975478	0.284164
614	H	0.878776	0.977948	0.308139
615	H	0.905376	0.969415	0.343232
616	C	0.987042	0.410146	0.321395
617	C	0.970843	0.430497	0.327372
618	C	0.934491	0.411161	0.000153
619	N	0.916921	0.376128	0.00052
620	C	0.932832	0.357339	0.328422
621	N	0.967528	0.375036	0.322317
622	H	0.920357	0.423063	0.004882
623	C	0.777599	0.079029	0.039234
624	C	0.761088	0.079985	0.99881
625	C	0.777332	0.07984	0.291348
626	N	0.808321	0.081202	0.291883
627	C	0.823659	0.079691	0.997218
628	N	0.808445	0.07997	0.036614
629	H	0.768824	0.083841	0.261208
630	C	0.765947	0.081437	0.085039
631	H	0.7408	0.079826	0.085007
632	H	0.784713	0.105871	0.100449
633	H	0.76389	0.06028	0.105619
634	C	0.928739	0.200936	0.039345
635	C	0.928351	0.183642	0.998988
636	C	0.928977	0.20025	0.291504
637	N	0.927711	0.229927	0.291824
638	C	0.928735	0.246538	0.99714
639	N	0.92789	0.230879	0.036626
640	H	0.925526	0.187906	0.261334
641	C	0.925858	0.186716	0.085157
642	H	0.927489	0.163193	0.085261
643	H	0.901256	0.180967	0.100098
644	H	0.94679	0.205758	0.106084
645	C	0.80746	0.230324	0.039444
646	C	0.824685	0.247144	0.999032
647	C	0.808126	0.231237	0.291523
648	N	0.778422	0.200302	0.291869
649	C	0.761833	0.184707	0.997211
650	N	0.77752	0.199514	0.036706
651	H	0.820416	0.240139	0.261319
652	C	0.82175	0.241607	0.085238
653	H	0.845282	0.266763	0.085332
654	H	0.827515	0.222734	0.100069
655	H	0.802744	0.243474	0.106263
656	C	0.988298	0.467721	0.327331
657	N	0.970351	0.484975	0.327414
658	C	0.985184	0.019987	0.327372
659	N	0.520393	0.037937	0.327446
660	C	0.540575	0.023113	0.327365
661	N	0.523314	0.487907	0.32741
662	C	0.740824	0.148703	0.330156
663	N	0.705743	0.131237	0.32914
664	C	0.687511	0.09594	0.329305
665	N	0.705239	0.078379	0.33039
666	C	0.740352	0.095569	0.331187
667	N	0.757498	0.130496	0.331185
668	C	0.859646	0.094665	0.330102
669	N	0.877106	0.07705	0.329112
670	C	0.912407	0.09412	0.329292
671	N	0.929978	0.129414	0.330419
672	C	0.912792	0.147334	0.33125
673	N	0.877862	0.129546	0.331207
674	C	0.913712	0.267519	0.330099
675	N	0.931302	0.302596	0.329023
676	C	0.914209	0.320796	0.329213
677	N	0.878914	0.303042	0.330398
678	C	0.861017	0.267932	0.331277
679	N	0.878827	0.25082	0.331231
680	C	0.598171	0.079441	0.65482
681	C	0.577805	0.042886	0.660771
682	C	0.597126	0.025864	0.333556
683	N	0.632161	0.043325	0.333938
684	C	0.650965	0.078031	0.661865
685	N	0.633283	0.095038	0.655759
686	H	0.585214	0.999825	0.338268
687	C	0.584349	0.102935	0.647032
688	H	0.567696	0.094714	0.617417
689	H	0.604936	0.129499	0.641337
690	H	0.569808	0.102932	0.676468
691	C	0.928861	0.021258	0.65485
692	C	0.96542	0.037447	0.660778
693	C	0.982462	0.073801	0.33352
694	N	0.965013	0.091379	0.333902
695	C	0.930303	0.075477	0.661855
696	N	0.913278	0.04078	0.655783
697	C	0.905346	0.983932	0.647123
698	H	0.913533	0.975478	0.617498
699	H	0.878776	0.977948	0.641472
700	H	0.905376	0.969415	0.676566
701	C	0.987042	0.410146	0.654726
702	C	0.970843	0.430497	0.660707
703	C	0.934491	0.411161	0.333486
704	N	0.916921	0.376128	0.333852
705	C	0.932832	0.357339	0.661754
706	N	0.967528	0.375036	0.655652
707	H	0.920357	0.423063	0.338214
708	C	0.777599	0.079029	0.372568
709	C	0.761088	0.079985	0.332144
710	C	0.777332	0.07984	0.62468
711	N	0.808321	0.081202	0.625215
712	C	0.823659	0.079691	0.330553
713	N	0.808445	0.07997	0.369946
714	H	0.768824	0.083841	0.59454
715	C	0.765947	0.081437	0.418372
716	H	0.7408	0.079826	0.418342
717	H	0.784713	0.105871	0.433784
718	H	0.76389	0.06028	0.438953
719	C	0.928739	0.200936	0.372679
720	C	0.928351	0.183642	0.332321
721	C	0.928977	0.20025	0.624835
722	N	0.927711	0.229927	0.625158
723	C	0.928735	0.246538	0.330475
724	N	0.92789	0.230879	0.369959
725	H	0.925526	0.187906	0.594668
726	C	0.925858	0.186716	0.41849
727	H	0.927489	0.163193	0.418594
728	H	0.901256	0.180967	0.43343
729	H	0.94679	0.205758	0.439418
730	C	0.80746	0.230324	0.372777
731	C	0.824685	0.247144	0.332367
732	C	0.808126	0.231237	0.624855
733	N	0.778422	0.200302	0.625202
734	C	0.761833	0.184707	0.330547
735	N	0.77752	0.199514	0.37004
736	H	0.820416	0.240139	0.594651
737	C	0.82175	0.241607	0.418571
738	H	0.845282	0.266763	0.418665
739	H	0.827515	0.222734	0.433403
740	H	0.802744	0.243474	0.439596
741	C	0.988298	0.467721	0.660663
742	N	0.970351	0.484975	0.660747
743	C	0.985184	0.019987	0.660707
744	N	0.520393	0.037937	0.660781
745	C	0.540575	0.023113	0.660697
746	N	0.523314	0.487907	0.660744
747	C	0.740824	0.148703	0.66349
748	N	0.705743	0.131237	0.662474
749	C	0.687511	0.09594	0.662639
750	N	0.705239	0.078379	0.663723
751	C	0.740352	0.095569	0.66452
752	N	0.757498	0.130496	0.664517
753	C	0.859646	0.094665	0.663436
754	N	0.877106	0.07705	0.662447
755	C	0.912407	0.09412	0.662625
756	N	0.929978	0.129414	0.663753
757	C	0.912792	0.147334	0.664584
758	N	0.877862	0.129546	0.66454
759	C	0.913712	0.267519	0.663433
760	N	0.931302	0.302596	0.662356
761	C	0.914209	0.320796	0.662545
762	N	0.878914	0.303042	0.663729
763	C	0.861017	0.267932	0.664611
764	N	0.878827	0.25082	0.664564
765	C	0.598171	0.079441	0.988154
766	C	0.577805	0.042886	0.994105
767	C	0.597126	0.025864	0.66689
768	N	0.632161	0.043325	0.66727
769	C	0.650965	0.078031	0.995195
770	N	0.633283	0.095038	0.989093
771	H	0.585214	0.999825	0.671602
772	C	0.584349	0.102935	0.980366
773	H	0.567696	0.094714	0.950747
774	H	0.604936	0.129499	0.974671
775	H	0.569808	0.102932	0.009804
776	C	0.928861	0.021258	0.988184
777	C	0.96542	0.037447	0.994111
778	C	0.982462	0.073801	0.666853
779	N	0.965013	0.091379	0.667236
780	C	0.930303	0.075477	0.995185
781	N	0.913278	0.04078	0.989117
782	C	0.905346	0.983932	0.980457
783	H	0.913533	0.975478	0.950828
784	H	0.878776	0.977948	0.974806
785	H	0.905376	0.969415	0.0099
786	C	0.987042	0.410146	0.98806
787	C	0.970843	0.430497	0.994037
788	C	0.934491	0.411161	0.666819
789	N	0.916921	0.376128	0.667186
790	C	0.932832	0.357339	0.995087
791	N	0.967528	0.375036	0.988982
792	H	0.920357	0.423063	0.671548
793	C	0.777599	0.079029	0.705898
794	C	0.761088	0.079985	0.665476
795	C	0.777332	0.07984	0.958014
796	N	0.808321	0.081202	0.958549
797	C	0.823659	0.079691	0.663887
798	N	0.808445	0.07997	0.70328
799	H	0.768824	0.083841	0.927874
800	C	0.765947	0.081437	0.751706
801	H	0.7408	0.079826	0.751672
802	H	0.784713	0.105871	0.767114
803	H	0.76389	0.06028	0.772284
804	C	0.928739	0.200936	0.706009
805	C	0.928351	0.183642	0.665654
806	C	0.928977	0.20025	0.958169
807	N	0.927711	0.229927	0.958489
808	C	0.928735	0.246538	0.663807
809	N	0.92789	0.230879	0.703293
810	H	0.925526	0.187906	0.927999
811	C	0.925858	0.186716	0.751823
812	H	0.927489	0.163193	0.751928
813	H	0.901256	0.180967	0.766764
814	H	0.94679	0.205758	0.772752
815	C	0.80746	0.230324	0.70611
816	C	0.824685	0.247144	0.665698
817	C	0.808126	0.231237	0.958189
818	N	0.778422	0.200302	0.958536
819	C	0.761833	0.184707	0.663881
820	N	0.77752	0.199514	0.703371
821	H	0.820416	0.240139	0.927985
822	C	0.82175	0.241607	0.751904
823	H	0.845282	0.266763	0.751999
824	H	0.827515	0.222734	0.766734
825	H	0.802744	0.243474	0.77293
826	C	0.988298	0.967721	0.993997
827	N	0.970349	0.984975	0.994081
828	C	0.985184	0.519987	0.994037
829	N	0.520391	0.537937	0.994111
830	C	0.540575	0.523113	0.99403
831	N	0.523313	0.987907	0.994074
832	C	0.740824	0.648704	0.996821
833	N	0.70574	0.631236	0.995808
834	C	0.687511	0.59594	0.995969
835	N	0.705239	0.57838	0.997056
836	C	0.740352	0.595569	0.997854
837	N	0.757496	0.630496	0.997851
838	C	0.859646	0.594665	0.996767
839	N	0.877106	0.577051	0.995777
840	C	0.912405	0.59412	0.995959
841	N	0.929978	0.629414	0.997087
842	C	0.912791	0.647333	0.997915
843	N	0.877862	0.629546	0.997874
844	C	0.913712	0.767519	0.996763
845	N	0.931302	0.802596	0.99569
846	C	0.914209	0.820796	0.995878
847	N	0.878914	0.803042	0.997063
848	C	0.861017	0.767932	0.997941
849	N	0.878827	0.750821	0.997898
850	C	0.598171	0.579441	0.321487
851	C	0.577802	0.542885	0.327437
852	C	0.597127	0.525864	0.00022
853	N	0.632161	0.543326	0.000604
854	C	0.650965	0.578031	0.328531
855	N	0.633283	0.595037	0.322427
856	H	0.585215	0.499825	0.004936
857	C	0.58435	0.602935	0.3137
858	H	0.567697	0.594714	0.284083
859	H	0.604933	0.629499	0.308005
860	H	0.569808	0.60293	0.343138
861	C	0.928861	0.521259	0.321519
862	C	0.96542	0.537446	0.327445
863	C	0.982462	0.573801	0.000186
864	N	0.965013	0.591379	0.000567
865	C	0.930302	0.575476	0.328521
866	N	0.913279	0.540781	0.322451
867	C	0.905346	0.483932	0.31379
868	H	0.913533	0.475478	0.284164
869	H	0.878776	0.477948	0.30814
870	H	0.905376	0.469415	0.343232
871	C	0.987041	0.910144	0.321395
872	C	0.970843	0.930497	0.327372
873	C	0.934491	0.911161	0.000153
874	N	0.916921	0.876128	0.00052
875	C	0.932832	0.857339	0.328422
876	N	0.967528	0.875036	0.322317
877	H	0.920357	0.923063	0.004882
878	C	0.777598	0.579028	0.039234
879	C	0.761088	0.579985	0.99881
880	C	0.77733	0.579841	0.291348
881	N	0.808321	0.581201	0.291883
882	C	0.823658	0.579691	0.997218
883	N	0.808445	0.57997	0.036614
884	H	0.768825	0.583842	0.261208
885	C	0.765947	0.581436	0.085039
886	H	0.740799	0.579825	0.085007
887	H	0.784712	0.60587	0.100449
888	H	0.763891	0.56028	0.105619
889	C	0.928739	0.700936	0.039345
890	C	0.928351	0.683641	0.998988
891	C	0.928977	0.700249	0.291504
892	N	0.92771	0.729926	0.291824
893	C	0.928735	0.746539	0.99714
894	N	0.92789	0.730878	0.036626
895	H	0.925525	0.687905	0.261334
896	C	0.925858	0.686715	0.085157
897	H	0.927489	0.663192	0.085261
898	H	0.901256	0.680967	0.100098
899	H	0.94679	0.705757	0.106084
900	C	0.807459	0.730323	0.039444
901	C	0.824684	0.747143	0.999032
902	C	0.808126	0.731237	0.291523
903	N	0.77842	0.700303	0.291869
904	C	0.761833	0.684707	0.997211
905	N	0.77752	0.699513	0.036706
906	H	0.820415	0.74014	0.261319
907	C	0.821751	0.741608	0.085238
908	H	0.84528	0.766763	0.085332
909	H	0.827515	0.722734	0.100069
910	H	0.802744	0.743475	0.106263
911	C	0.988298	0.967721	0.327331
912	N	0.970349	0.984975	0.327414
913	C	0.985184	0.519987	0.327372
914	N	0.520391	0.537937	0.327446
915	C	0.540575	0.523113	0.327365
916	N	0.523313	0.987907	0.32741
917	C	0.740824	0.648704	0.330156
918	N	0.70574	0.631236	0.32914
919	C	0.687511	0.59594	0.329305
920	N	0.705239	0.57838	0.33039
921	C	0.740352	0.595569	0.331187
922	N	0.757496	0.630496	0.331185
923	C	0.859646	0.594665	0.330102
924	N	0.877106	0.577051	0.329112
925	C	0.912405	0.59412	0.329292
926	N	0.929978	0.629414	0.330419
927	C	0.912791	0.647333	0.33125
928	N	0.877862	0.629546	0.331207
929	C	0.913712	0.767519	0.330099
930	N	0.931302	0.802596	0.329023
931	C	0.914209	0.820796	0.329213
932	N	0.878914	0.803042	0.330398
933	C	0.861017	0.767932	0.331277
934	N	0.878827	0.750821	0.331231
935	C	0.598171	0.579441	0.65482
936	C	0.577802	0.542885	0.660771
937	C	0.597127	0.525864	0.333556
938	N	0.632161	0.543326	0.333938
939	C	0.650965	0.578031	0.661865
940	N	0.633283	0.595037	0.655759
941	H	0.585215	0.499825	0.338268
942	C	0.58435	0.602935	0.647032
943	H	0.567697	0.594714	0.617417
944	H	0.604933	0.629499	0.641337
945	H	0.569808	0.60293	0.676468
946	C	0.928861	0.521259	0.65485
947	C	0.96542	0.537446	0.660778
948	C	0.982462	0.573801	0.33352
949	N	0.965013	0.591379	0.333902
950	C	0.930302	0.575476	0.661855
951	N	0.913279	0.540781	0.655783
952	C	0.905346	0.483932	0.647123
953	H	0.913533	0.475478	0.617498
954	H	0.878776	0.477948	0.641472
955	H	0.905376	0.469415	0.676566
956	C	0.987041	0.910144	0.654726
957	C	0.970843	0.930497	0.660707
958	C	0.934491	0.911161	0.333486
959	N	0.916921	0.876128	0.333852
960	C	0.932832	0.857339	0.661754
961	N	0.967528	0.875036	0.655652
962	H	0.920357	0.923063	0.338214
963	C	0.777598	0.579028	0.372568
964	C	0.761088	0.579985	0.332144
965	C	0.77733	0.579841	0.62468
966	N	0.808321	0.581201	0.625215
967	C	0.823658	0.579691	0.330553
968	N	0.808445	0.57997	0.369946
969	H	0.768825	0.583842	0.59454
970	C	0.765947	0.581436	0.418372
971	H	0.740799	0.579825	0.418342
972	H	0.784712	0.60587	0.433784
973	H	0.763891	0.56028	0.438953
974	C	0.928739	0.700936	0.372679
975	C	0.928351	0.683641	0.332321
976	C	0.928977	0.700249	0.624835
977	N	0.92771	0.729926	0.625158
978	C	0.928735	0.746539	0.330475
979	N	0.92789	0.730878	0.369959
980	H	0.925525	0.687905	0.594668
981	C	0.925858	0.686715	0.41849
982	H	0.927489	0.663192	0.418594
983	H	0.901256	0.680967	0.43343
984	H	0.94679	0.705757	0.439418
985	C	0.807459	0.730323	0.372777
986	C	0.824684	0.747143	0.332367
987	C	0.808126	0.731237	0.624855
988	N	0.77842	0.700303	0.625202
989	C	0.761833	0.684707	0.330547
990	N	0.77752	0.699513	0.37004
991	H	0.820415	0.74014	0.594651
992	C	0.821751	0.741608	0.418571
993	H	0.84528	0.766763	0.418665
994	H	0.827515	0.722734	0.433403
995	H	0.802744	0.743475	0.439596
996	C	0.988298	0.967721	0.660663
997	N	0.970349	0.984975	0.660747
998	C	0.985184	0.519987	0.660707
999	N	0.520391	0.537937	0.660781
1000	C	0.540575	0.523113	0.660697
1001	N	0.523313	0.987907	0.660744
1002	C	0.740824	0.648704	0.663487
1003	N	0.70574	0.631236	0.662474
1004	C	0.687511	0.59594	0.662639
1005	N	0.705239	0.57838	0.663723
1006	C	0.740352	0.595569	0.66452
1007	N	0.757496	0.630496	0.664517
1008	C	0.859646	0.594665	0.663436
1009	N	0.877106	0.577051	0.662447
1010	C	0.912405	0.59412	0.662625
1011	N	0.929978	0.629414	0.663753
1012	C	0.912791	0.647333	0.664584
1013	N	0.877862	0.629546	0.66454
1014	C	0.913712	0.767519	0.663433
1015	N	0.931302	0.802596	0.662356
1016	C	0.914209	0.820796	0.662545
1017	N	0.878914	0.803042	0.663729
1018	C	0.861017	0.767932	0.664611
1019	N	0.878827	0.750821	0.664564
1020	C	0.598171	0.579441	0.988154
1021	C	0.577802	0.542885	0.994105
1022	C	0.597127	0.525864	0.66689
1023	N	0.632161	0.543326	0.66727
1024	C	0.650965	0.578031	0.995195
1025	N	0.633283	0.595037	0.989093
1026	H	0.585215	0.499825	0.671602
1027	C	0.58435	0.602935	0.980366
1028	H	0.567697	0.594714	0.950747
1029	H	0.604933	0.629499	0.974671
1030	H	0.569808	0.60293	0.009804
1031	C	0.928861	0.521259	0.988184
1032	C	0.96542	0.537446	0.994111
1033	C	0.982462	0.573801	0.666853
1034	N	0.965013	0.591379	0.667236
1035	C	0.930302	0.575476	0.995185
1036	N	0.913279	0.540781	0.989117
1037	C	0.905346	0.483932	0.980457
1038	H	0.913533	0.475478	0.950828
1039	H	0.878776	0.477948	0.974806
1040	H	0.905376	0.469415	0.0099
1041	C	0.987041	0.910144	0.98806
1042	C	0.970843	0.930497	0.994037
1043	C	0.934491	0.911161	0.666819
1044	N	0.916921	0.876128	0.667186
1045	C	0.932832	0.857339	0.995087
1046	N	0.967528	0.875036	0.988982
1047	H	0.920357	0.923063	0.671548
1048	C	0.777598	0.579028	0.705898
1049	C	0.761088	0.579985	0.665476
1050	C	0.77733	0.579841	0.958014
1051	N	0.808321	0.581201	0.958549
1052	C	0.823658	0.579691	0.663887
1053	N	0.808445	0.57997	0.70328
1054	H	0.768825	0.583842	0.927874
1055	C	0.765947	0.581436	0.751706
1056	H	0.740799	0.579825	0.751672
1057	H	0.784712	0.60587	0.767114
1058	H	0.763891	0.56028	0.772284
1059	C	0.928739	0.700936	0.706009
1060	C	0.928351	0.683641	0.665654
1061	C	0.928977	0.700249	0.958169
1062	N	0.92771	0.729926	0.958489
1063	C	0.928735	0.746539	0.663807
1064	N	0.92789	0.730878	0.703293
1065	H	0.925525	0.687905	0.927999
1066	C	0.925858	0.686715	0.751823
1067	H	0.927489	0.663192	0.751928
1068	H	0.901256	0.680967	0.766764
1069	H	0.94679	0.705757	0.772752
1070	C	0.807459	0.730323	0.70611
1071	C	0.824684	0.747143	0.665698
1072	C	0.808126	0.731237	0.958189
1073	N	0.77842	0.700303	0.958536
1074	C	0.761833	0.684707	0.663881
1075	N	0.77752	0.699513	0.703371
1076	H	0.820415	0.74014	0.927985
1077	C	0.821751	0.741608	0.751904
1078	H	0.84528	0.766763	0.751999
1079	H	0.827515	0.722734	0.766734
1080	H	0.802744	0.743475	0.77293
