data_C540H360N144_2018-02-15_10:45:44
#******************************************
#
# CIF file created by Zeo++
# Zeo++ is an open source package to
# analyze microporous materials
#
#*******************************************

_cell_length_a		45.8547   
_cell_length_b		45.8547   
_cell_length_c		29.2522   
_cell_angle_alpha		90   
_cell_angle_beta		90   
_cell_angle_gamma		120   

_symmetry_space_group_name_H-M		'P1'
_symmetry_Int_Tables_number		1
_symmetry_cell_setting		Monoclinic

loop_
_symmetry_equiv_pos_as_xyz
'+x,+y,+z'

loop_
_atom_site_label
_atom_site_type_symbol
_atom_site_fract_x
_atom_site_fract_y
_atom_site_fract_z
1	C	0.210646	0.335698	0.033305
2	C	0.220185	0.370327	0.033298
3	C	0.196255	0.381342	0.033303
4	C	0.161625	0.356251	0.033297
5	C	0.15061	0.321306	0.033306
6	C	0.175701	0.311767	0.033303
7	H	0.143927	0.363649	0.033056
8	H	0.168301	0.286669	0.033059
9	H	0.245281	0.388023	0.033059
10	C	0.205794	0.415977	0.032812
11	C	0.115974	0.29621	0.032812
12	C	0.235741	0.326156	0.032816
13	H	0.260413	0.344692	0.030336
14	H	0.109838	0.271537	0.030332
15	H	0.187258	0.422114	0.030331
16	C	0.248458	0.278855	0.03737
17	C	0.232866	0.244169	0.048165
18	C	0.251416	0.226761	0.048187
19	N	0.234764	0.19399	0.061557
20	C	0.201866	0.176707	0.074145
21	C	0.183705	0.193987	0.073192
22	N	0.199829	0.226816	0.060558
23	H	0.158924	0.182452	0.082476
24	C	0.186332	0.141299	0.088866
25	H	0.204465	0.132444	0.087424
26	H	0.165163	0.125428	0.066622
27	H	0.177322	0.138832	0.12395
28	N	0.229235	0.293966	0.037701
29	C	0.253098	0.475995	0.037354
30	C	0.25351	0.029581	0.360509
31	C	0.236237	0.494	0.360769
32	H	0.211186	0.481346	0.352835
33	H	0.240286	0.041423	0.35237
34	N	0.237985	0.44166	0.037691
35	C	0.055956	0.283496	0.03735
36	C	0.036861	0.299086	0.048148
37	C	0.037952	0.248629	0.360766
38	C	0.035842	0.348241	0.073213
39	N	0.052546	0.332119	0.060557
40	H	0.04909	0.373024	0.082488
41	H	0.050606	0.236235	0.352818
42	N	0.09029	0.302717	0.037689
43	C	0.210646	0.335698	0.366639
44	C	0.220185	0.370327	0.366632
45	C	0.196255	0.381342	0.366635
46	C	0.161625	0.356251	0.366632
47	C	0.15061	0.321306	0.366639
48	C	0.175701	0.311767	0.366635
49	H	0.143927	0.363649	0.366389
50	H	0.168301	0.286669	0.366393
51	H	0.245281	0.388023	0.366393
52	C	0.205794	0.415977	0.366147
53	C	0.115974	0.29621	0.366147
54	C	0.235741	0.326156	0.36615
55	H	0.260413	0.344692	0.363668
56	H	0.109838	0.271537	0.363665
57	H	0.187258	0.422114	0.363665
58	C	0.248458	0.278855	0.370703
59	C	0.232866	0.244169	0.381499
60	C	0.251416	0.226761	0.38152
61	N	0.234764	0.19399	0.39489
62	C	0.201866	0.176707	0.40748
63	C	0.183705	0.193987	0.406526
64	N	0.199829	0.226816	0.393891
65	H	0.158924	0.182452	0.415808
66	C	0.186332	0.141299	0.4222
67	H	0.204465	0.132444	0.420758
68	H	0.165163	0.125428	0.399956
69	H	0.177322	0.138832	0.457285
70	N	0.229235	0.293966	0.371035
71	C	0.253098	0.475995	0.370686
72	C	0.25351	0.029581	0.693841
73	C	0.236237	0.494	0.694104
74	H	0.211186	0.481346	0.68617
75	H	0.240286	0.041423	0.685705
76	N	0.237985	0.44166	0.371025
77	C	0.055956	0.283496	0.370683
78	C	0.036861	0.299086	0.381482
79	C	0.037952	0.248629	0.694101
80	C	0.035842	0.348241	0.406547
81	N	0.052546	0.332119	0.393891
82	H	0.04909	0.373024	0.415821
83	H	0.050606	0.236235	0.686153
84	N	0.09029	0.302717	0.371021
85	C	0.210646	0.335698	0.699971
86	C	0.220185	0.370327	0.699964
87	C	0.196255	0.381342	0.699971
88	C	0.161625	0.356251	0.699964
89	C	0.15061	0.321306	0.699974
90	C	0.175701	0.311767	0.699971
91	H	0.143927	0.363649	0.699725
92	H	0.168301	0.286669	0.699725
93	H	0.245281	0.388023	0.699728
94	C	0.205794	0.415977	0.699478
95	C	0.115974	0.29621	0.699478
96	C	0.235741	0.326156	0.699485
97	H	0.260413	0.344692	0.697003
98	H	0.109838	0.271537	0.697
99	H	0.187258	0.422114	0.697
100	C	0.248458	0.278855	0.704039
101	C	0.232866	0.244169	0.714831
102	C	0.251416	0.226761	0.714855
103	N	0.234764	0.19399	0.728225
104	C	0.201866	0.176707	0.740812
105	C	0.183705	0.193987	0.739858
106	N	0.199829	0.226816	0.727227
107	H	0.158924	0.182452	0.749143
108	C	0.186332	0.141299	0.755532
109	H	0.204465	0.132444	0.75409
110	H	0.165163	0.125428	0.733288
111	H	0.177322	0.138832	0.790617
112	N	0.229235	0.293966	0.704367
113	C	0.253098	0.475995	0.704022
114	C	0.25351	0.029581	0.027175
115	C	0.236237	0.494	0.027436
116	H	0.211186	0.481346	0.019501
117	H	0.240286	0.041423	0.019038
118	N	0.237985	0.44166	0.70436
119	C	0.055956	0.283496	0.704018
120	C	0.036861	0.299086	0.714814
121	C	0.037952	0.248629	0.027433
122	C	0.035842	0.348241	0.739879
123	N	0.052546	0.332119	0.727223
124	H	0.04909	0.373024	0.749157
125	H	0.050606	0.236235	0.019484
126	N	0.09029	0.302717	0.704357
127	C	0.210644	0.835696	0.033305
128	C	0.220184	0.870326	0.033298
129	C	0.196254	0.88134	0.033303
130	C	0.161623	0.856249	0.033297
131	C	0.150608	0.821304	0.033306
132	C	0.1757	0.811765	0.033303
133	H	0.143928	0.86365	0.033056
134	H	0.168301	0.786669	0.033059
135	H	0.245281	0.888023	0.033059
136	C	0.205795	0.915977	0.032812
137	C	0.115973	0.796208	0.032812
138	C	0.235741	0.826157	0.032816
139	H	0.260413	0.844693	0.030336
140	H	0.109838	0.771538	0.030332
141	H	0.187257	0.922112	0.030331
142	C	0.248457	0.778853	0.03737
143	C	0.232865	0.744168	0.048165
144	C	0.251415	0.72676	0.048187
145	N	0.234763	0.693991	0.061557
146	C	0.201865	0.676706	0.074145
147	C	0.183704	0.693986	0.073192
148	N	0.199828	0.726815	0.060558
149	H	0.158924	0.682452	0.082476
150	C	0.186331	0.641298	0.088866
151	H	0.204465	0.632444	0.087424
152	H	0.165163	0.625428	0.066622
153	H	0.177321	0.63883	0.12395
154	N	0.229234	0.793965	0.037701
155	C	0.253098	0.975996	0.037354
156	C	0.25351	0.529582	0.360509
157	C	0.236235	0.993998	0.360769
158	H	0.211184	0.981344	0.352835
159	H	0.240285	0.541422	0.35237
160	N	0.237985	0.94166	0.037691
161	C	0.055955	0.783494	0.03735
162	C	0.036862	0.799086	0.048148
163	C	0.03795	0.748627	0.360766
164	C	0.035843	0.848241	0.073213
165	N	0.052546	0.83212	0.060557
166	H	0.049089	0.873023	0.082488
167	H	0.050605	0.736235	0.352818
168	N	0.090291	0.802718	0.037689
169	C	0.210644	0.835696	0.366639
170	C	0.220184	0.870326	0.366632
171	C	0.196254	0.88134	0.366635
172	C	0.161623	0.856249	0.366632
173	C	0.150608	0.821304	0.366639
174	C	0.1757	0.811765	0.366635
175	H	0.143928	0.86365	0.366389
176	H	0.168301	0.786669	0.366393
177	H	0.245281	0.888023	0.366393
178	C	0.205795	0.915977	0.366147
179	C	0.115973	0.796208	0.366147
180	C	0.235741	0.826157	0.36615
181	H	0.260413	0.844693	0.363668
182	H	0.109838	0.771538	0.363665
183	H	0.187257	0.922112	0.363665
184	C	0.248457	0.778853	0.370703
185	C	0.232865	0.744168	0.381499
186	C	0.251415	0.72676	0.38152
187	N	0.234763	0.693991	0.39489
188	C	0.201865	0.676706	0.40748
189	C	0.183704	0.693986	0.406526
190	N	0.199828	0.726815	0.393891
191	H	0.158924	0.682452	0.415808
192	C	0.186331	0.641298	0.4222
193	H	0.204465	0.632444	0.420758
194	H	0.165163	0.625428	0.399956
195	H	0.177321	0.63883	0.457285
196	N	0.229234	0.793965	0.371035
197	C	0.253098	0.975996	0.370686
198	C	0.25351	0.529582	0.693841
199	C	0.236235	0.993998	0.694104
200	H	0.211184	0.981344	0.68617
201	H	0.240285	0.541422	0.685705
202	N	0.237985	0.94166	0.371025
203	C	0.055955	0.783494	0.370683
204	C	0.036862	0.799086	0.381482
205	C	0.03795	0.748627	0.694101
206	C	0.035843	0.848241	0.406547
207	N	0.052546	0.83212	0.393891
208	H	0.049089	0.873023	0.415821
209	H	0.050605	0.736235	0.686153
210	N	0.090291	0.802718	0.371021
211	C	0.210644	0.835696	0.699971
212	C	0.220184	0.870326	0.699964
213	C	0.196254	0.88134	0.699971
214	C	0.161623	0.856249	0.699964
215	C	0.150608	0.821304	0.699974
216	C	0.1757	0.811765	0.699971
217	H	0.143928	0.86365	0.699725
218	H	0.168301	0.786669	0.699725
219	H	0.245281	0.888023	0.699728
220	C	0.205795	0.915977	0.699478
221	C	0.115973	0.796208	0.699478
222	C	0.235741	0.826157	0.699485
223	H	0.260413	0.844693	0.697003
224	H	0.109838	0.771538	0.697
225	H	0.187257	0.922112	0.697
226	C	0.248457	0.778853	0.704039
227	C	0.232865	0.744168	0.714831
228	C	0.251415	0.72676	0.714855
229	N	0.234763	0.693991	0.728225
230	C	0.201865	0.676706	0.740812
231	C	0.183704	0.693986	0.739858
232	N	0.199828	0.726815	0.727227
233	H	0.158924	0.682452	0.749143
234	C	0.186331	0.641298	0.755532
235	H	0.204465	0.632444	0.75409
236	H	0.165163	0.625428	0.733288
237	H	0.177321	0.63883	0.790617
238	N	0.229234	0.793965	0.704367
239	C	0.253098	0.975996	0.704022
240	C	0.25351	0.529582	0.027175
241	C	0.236235	0.993998	0.027436
242	H	0.211184	0.981344	0.019501
243	H	0.240285	0.541422	0.019038
244	N	0.237985	0.94166	0.70436
245	C	0.055955	0.783494	0.704018
246	C	0.036862	0.799086	0.714814
247	C	0.03795	0.748627	0.027433
248	C	0.035843	0.848241	0.739879
249	N	0.052546	0.83212	0.727223
250	H	0.049089	0.873023	0.749157
251	H	0.050605	0.736235	0.019484
252	N	0.090291	0.802718	0.704357
253	C	0.327095	0.189046	0.035502
254	C	0.318363	0.154617	0.03541
255	C	0.342905	0.14444	0.035502
256	C	0.377336	0.170139	0.035416
257	C	0.387512	0.204858	0.035495
258	C	0.361813	0.213589	0.035414
259	H	0.395526	0.163399	0.035882
260	H	0.368553	0.238519	0.035879
261	H	0.293433	0.136426	0.035883
262	C	0.334292	0.110082	0.036754
263	C	0.42187	0.230603	0.036754
264	C	0.301349	0.19766	0.036755
265	H	0.277093	0.178293	0.038163
266	H	0.42676	0.254859	0.038155
267	H	0.35366	0.105193	0.038163
268	C	0.286179	0.243595	0.37005
269	C	0.301631	0.278442	0.360516
270	C	0.283323	0.295716	0.360783
271	H	0.295717	0.320765	0.352831
272	H	0.326695	0.291665	0.35237
273	N	0.306362	0.229513	0.367688
274	C	0.287784	0.495088	0.048147
275	C	0.305193	0.031047	0.048175
276	C	0.288358	0.048976	0.370037
277	N	0.337965	0.047165	0.061544
278	C	0.355245	0.031549	0.074136
279	C	0.337962	0.496108	0.073192
280	N	0.305135	0.479405	0.060547
281	H	0.3495	0.482862	0.082459
282	C	0.390655	0.051423	0.088846
283	H	0.399513	0.078411	0.087395
284	H	0.406523	0.046119	0.0666
285	H	0.393129	0.044886	0.123931
286	N	0.30244	0.083241	0.367681
287	N	0.44871	0.225589	0.367685
288	C	0.327095	0.189046	0.368837
289	C	0.318363	0.154617	0.368745
290	C	0.342905	0.14444	0.368837
291	C	0.377336	0.170139	0.368748
292	C	0.387512	0.204858	0.36883
293	C	0.361813	0.213589	0.368748
294	H	0.395526	0.163399	0.369216
295	H	0.368553	0.238519	0.369213
296	H	0.293433	0.136426	0.369216
297	C	0.334292	0.110082	0.370088
298	C	0.42187	0.230603	0.370088
299	C	0.301349	0.19766	0.370088
300	H	0.277093	0.178293	0.371497
301	H	0.42676	0.254859	0.37149
302	H	0.35366	0.105193	0.371497
303	C	0.286179	0.243595	0.703382
304	C	0.301631	0.278442	0.693848
305	C	0.283323	0.295716	0.694115
306	H	0.295717	0.320765	0.686167
307	H	0.326695	0.291665	0.685705
308	N	0.306362	0.229513	0.701024
309	C	0.287784	0.495088	0.381482
310	C	0.305193	0.031047	0.381509
311	C	0.288358	0.048976	0.703372
312	N	0.337965	0.047165	0.394879
313	C	0.355245	0.031549	0.40747
314	C	0.337962	0.496108	0.406526
315	N	0.305135	0.479405	0.393881
316	H	0.3495	0.482862	0.415794
317	C	0.390655	0.051423	0.42218
318	H	0.399513	0.078411	0.42073
319	H	0.406523	0.046119	0.399932
320	H	0.393129	0.044886	0.457264
321	N	0.30244	0.083241	0.701017
322	N	0.44871	0.225589	0.70102
323	C	0.327095	0.189046	0.702169
324	C	0.318363	0.154617	0.702077
325	C	0.342905	0.14444	0.702169
326	C	0.377336	0.170139	0.702083
327	C	0.387512	0.204858	0.702162
328	C	0.361813	0.213589	0.70208
329	H	0.395526	0.163399	0.702548
330	H	0.368553	0.238519	0.702545
331	H	0.293433	0.136426	0.702552
332	C	0.334292	0.110082	0.70342
333	C	0.42187	0.230603	0.703423
334	C	0.301349	0.19766	0.703423
335	H	0.277093	0.178293	0.704832
336	H	0.42676	0.254859	0.704822
337	H	0.35366	0.105193	0.704832
338	C	0.286179	0.243595	0.036717
339	C	0.301631	0.278442	0.027181
340	C	0.283323	0.295716	0.027449
341	H	0.295717	0.320765	0.019498
342	H	0.326695	0.291665	0.019037
343	N	0.306362	0.229513	0.034355
344	C	0.287784	0.495088	0.714814
345	C	0.305193	0.031047	0.714841
346	C	0.288358	0.048976	0.036704
347	N	0.337965	0.047165	0.728211
348	C	0.355245	0.031549	0.740802
349	C	0.337962	0.496108	0.739858
350	N	0.305135	0.479405	0.727213
351	H	0.3495	0.482862	0.749126
352	C	0.390655	0.051423	0.755512
353	H	0.399513	0.078411	0.754062
354	H	0.406523	0.046119	0.733267
355	H	0.393129	0.044886	0.790596
356	N	0.30244	0.083241	0.034349
357	N	0.44871	0.225589	0.034352
358	C	0.327093	0.689045	0.035502
359	C	0.318362	0.654616	0.03541
360	C	0.342905	0.64444	0.035502
361	C	0.377335	0.670138	0.035416
362	C	0.387511	0.704856	0.035495
363	C	0.361813	0.713589	0.035414
364	H	0.395525	0.6634	0.035882
365	H	0.368552	0.738517	0.035879
366	H	0.293432	0.636425	0.035883
367	C	0.334291	0.61008	0.036754
368	C	0.42187	0.730602	0.036754
369	C	0.301349	0.69766	0.036755
370	H	0.277092	0.678292	0.038163
371	H	0.42676	0.75486	0.038155
372	H	0.35366	0.605192	0.038163
373	C	0.286177	0.743594	0.37005
374	C	0.301631	0.778442	0.360516
375	C	0.283322	0.795715	0.360783
376	H	0.295716	0.820763	0.352831
377	H	0.326695	0.791665	0.35237
378	N	0.306361	0.729512	0.367688
379	C	0.287784	0.995088	0.048147
380	C	0.305193	0.531047	0.048175
381	C	0.288358	0.548974	0.370037
382	N	0.337963	0.547164	0.061544
383	C	0.355245	0.531548	0.074136
384	C	0.337962	0.996108	0.073192
385	N	0.305134	0.979403	0.060547
386	H	0.349499	0.98286	0.082459
387	C	0.390656	0.551422	0.088846
388	H	0.399514	0.578412	0.087395
389	H	0.406522	0.546118	0.0666
390	H	0.393128	0.544885	0.123931
391	N	0.30244	0.583241	0.367681
392	N	0.448709	0.725589	0.367685
393	C	0.327093	0.689045	0.368837
394	C	0.318362	0.654616	0.368745
395	C	0.342905	0.64444	0.368837
396	C	0.377335	0.670138	0.368748
397	C	0.387511	0.704856	0.36883
398	C	0.361813	0.713589	0.368748
399	H	0.395525	0.6634	0.369216
400	H	0.368552	0.738517	0.369213
401	H	0.293432	0.636425	0.369216
402	C	0.334291	0.61008	0.370088
403	C	0.42187	0.730602	0.370088
404	C	0.301349	0.69766	0.370088
405	H	0.277092	0.678292	0.371497
406	H	0.42676	0.75486	0.37149
407	H	0.35366	0.605192	0.371497
408	C	0.286177	0.743594	0.703382
409	C	0.301631	0.778442	0.693848
410	C	0.283322	0.795715	0.694115
411	H	0.295716	0.820763	0.686167
412	H	0.326695	0.791665	0.685705
413	N	0.306361	0.729512	0.701024
414	C	0.287784	0.995088	0.381482
415	C	0.305193	0.531047	0.381509
416	C	0.288358	0.548974	0.703372
417	N	0.337963	0.547164	0.394879
418	C	0.355245	0.531548	0.40747
419	C	0.337962	0.996108	0.406526
420	N	0.305134	0.979403	0.393881
421	H	0.349499	0.98286	0.415794
422	C	0.390656	0.551422	0.42218
423	H	0.399514	0.578412	0.42073
424	H	0.406522	0.546118	0.399932
425	H	0.393128	0.544885	0.457264
426	N	0.30244	0.583241	0.701017
427	N	0.448709	0.725589	0.70102
428	C	0.327093	0.689045	0.702169
429	C	0.318362	0.654616	0.702077
430	C	0.342905	0.64444	0.702169
431	C	0.377335	0.670138	0.702083
432	C	0.387511	0.704856	0.702162
433	C	0.361813	0.713589	0.70208
434	H	0.395525	0.6634	0.702548
435	H	0.368552	0.738517	0.702545
436	H	0.293432	0.636425	0.702552
437	C	0.334291	0.61008	0.70342
438	C	0.42187	0.730602	0.703423
439	C	0.301349	0.69766	0.703423
440	H	0.277092	0.678292	0.704832
441	H	0.42676	0.75486	0.704822
442	H	0.35366	0.605192	0.704832
443	C	0.286177	0.743594	0.036717
444	C	0.301631	0.778442	0.027181
445	C	0.283322	0.795715	0.027449
446	H	0.295716	0.820763	0.019498
447	H	0.326695	0.791665	0.019037
448	N	0.306361	0.729512	0.034355
449	C	0.287784	0.995088	0.714814
450	C	0.305193	0.531047	0.714841
451	C	0.288358	0.548974	0.036704
452	N	0.337963	0.547164	0.728211
453	C	0.355245	0.531548	0.740802
454	C	0.337962	0.996108	0.739858
455	N	0.305134	0.979403	0.727213
456	H	0.349499	0.98286	0.749126
457	C	0.390656	0.551422	0.755512
458	H	0.399514	0.578412	0.754062
459	H	0.406522	0.546118	0.733267
460	H	0.393128	0.544885	0.790596
461	N	0.30244	0.583241	0.034349
462	N	0.448709	0.725589	0.034352
463	C	0.500903	0.280537	0.04817
464	C	0.482976	0.245773	0.370044
465	C	0.50237	0.230321	0.360502
466	N	0.484786	0.297187	0.061561
467	C	0.500402	0.330082	0.074161
468	H	0.490529	0.205255	0.352363
469	C	0.480529	0.345614	0.088895
470	H	0.453539	0.327483	0.087448
471	H	0.485828	0.366789	0.066661
472	H	0.487071	0.354617	0.123982
473	C	0.500903	0.280537	0.381503
474	C	0.482976	0.245773	0.703379
475	C	0.50237	0.230321	0.693838
476	N	0.484786	0.297187	0.394893
477	C	0.500402	0.330082	0.407494
478	H	0.490529	0.205255	0.685698
479	C	0.480529	0.345614	0.422228
480	H	0.453539	0.327483	0.420782
481	H	0.485828	0.366789	0.399994
482	H	0.487071	0.354617	0.457316
483	C	0.500903	0.280537	0.714838
484	C	0.482976	0.245773	0.03671
485	C	0.50237	0.230321	0.02717
486	N	0.484786	0.297187	0.728228
487	C	0.500402	0.330082	0.740829
488	H	0.490529	0.205255	0.01903
489	C	0.480529	0.345614	0.755563
490	H	0.453539	0.327483	0.754117
491	H	0.485828	0.366789	0.733329
492	H	0.487071	0.354617	0.790651
493	C	0.500903	0.780538	0.04817
494	C	0.482975	0.745772	0.370044
495	C	0.50237	0.73032	0.360502
496	N	0.484785	0.797185	0.061561
497	C	0.5004	0.83008	0.074161
498	H	0.490528	0.705254	0.352363
499	C	0.480527	0.845612	0.088895
500	H	0.453539	0.827481	0.087448
501	H	0.485827	0.866788	0.066661
502	H	0.487069	0.854615	0.123982
503	C	0.500903	0.780538	0.381503
504	C	0.482975	0.745772	0.703379
505	C	0.50237	0.73032	0.693838
506	N	0.484785	0.797185	0.394893
507	C	0.5004	0.83008	0.407494
508	H	0.490528	0.705254	0.685698
509	C	0.480527	0.845612	0.422228
510	H	0.453539	0.827481	0.420782
511	H	0.485827	0.866788	0.399994
512	H	0.487069	0.854615	0.457316
513	C	0.500903	0.780538	0.714838
514	C	0.482975	0.745772	0.03671
515	C	0.50237	0.73032	0.02717
516	N	0.484785	0.797185	0.728228
517	C	0.5004	0.83008	0.740829
518	H	0.490528	0.705254	0.01903
519	C	0.480527	0.845612	0.755563
520	H	0.453539	0.827481	0.754117
521	H	0.485827	0.866788	0.733329
522	H	0.487069	0.854615	0.790651
523	C	0.555956	0.283496	0.03735
524	C	0.536862	0.299086	0.048148
525	C	0.537951	0.248629	0.360766
526	C	0.535841	0.348241	0.073213
527	N	0.552545	0.332119	0.060557
528	H	0.54909	0.373024	0.082488
529	H	0.550605	0.236235	0.352818
530	N	0.59029	0.302717	0.037689
531	C	0.555956	0.283496	0.370683
532	C	0.536862	0.299086	0.381482
533	C	0.537951	0.248629	0.694101
534	C	0.535841	0.348241	0.406547
535	N	0.552545	0.332119	0.393891
536	H	0.54909	0.373024	0.415821
537	H	0.550605	0.236235	0.686153
538	N	0.59029	0.302717	0.371021
539	C	0.555956	0.283496	0.704018
540	C	0.536862	0.299086	0.714814
541	C	0.537951	0.248629	0.027433
542	C	0.535841	0.348241	0.739879
543	N	0.552545	0.332119	0.727223
544	H	0.54909	0.373024	0.749157
545	H	0.550605	0.236235	0.019484
546	N	0.59029	0.302717	0.704357
547	C	0.555954	0.783494	0.03735
548	C	0.536861	0.799086	0.048148
549	C	0.53795	0.748627	0.360766
550	C	0.535842	0.848241	0.073213
551	N	0.552545	0.83212	0.060557
552	H	0.549088	0.873023	0.082488
553	H	0.550606	0.736235	0.352818
554	N	0.590289	0.802718	0.037689
555	C	0.555954	0.783494	0.370683
556	C	0.536861	0.799086	0.381482
557	C	0.53795	0.748627	0.694101
558	C	0.535842	0.848241	0.406547
559	N	0.552545	0.83212	0.393891
560	H	0.549088	0.873023	0.415821
561	H	0.550606	0.736235	0.686153
562	N	0.590289	0.802718	0.371021
563	C	0.555954	0.783494	0.704018
564	C	0.536861	0.799086	0.714814
565	C	0.53795	0.748627	0.027433
566	C	0.535842	0.848241	0.739879
567	N	0.552545	0.83212	0.727223
568	H	0.549088	0.873023	0.749157
569	H	0.550606	0.736235	0.019484
570	N	0.590289	0.802718	0.704357
571	C	0.710646	0.335698	0.033305
572	C	0.720184	0.370327	0.033298
573	C	0.696254	0.381342	0.033303
574	C	0.661624	0.356251	0.033297
575	C	0.650609	0.321306	0.033306
576	C	0.675701	0.311767	0.033303
577	H	0.643927	0.363649	0.033056
578	H	0.668301	0.286669	0.033059
579	H	0.74528	0.388023	0.033059
580	C	0.705793	0.415977	0.032812
581	C	0.615974	0.29621	0.032812
582	C	0.735741	0.326156	0.032816
583	H	0.760412	0.344692	0.030336
584	H	0.609837	0.271537	0.030332
585	H	0.687258	0.422114	0.030331
586	C	0.827094	0.189046	0.035502
587	C	0.818362	0.154617	0.03541
588	C	0.842904	0.14444	0.035502
589	C	0.877335	0.170139	0.035416
590	C	0.887511	0.204858	0.035495
591	C	0.861814	0.213589	0.035414
592	H	0.895524	0.163399	0.035882
593	H	0.868552	0.238519	0.035879
594	H	0.793432	0.136426	0.035883
595	C	0.834291	0.110082	0.036754
596	C	0.921871	0.230603	0.036754
597	C	0.801349	0.19766	0.036755
598	H	0.777091	0.178293	0.038163
599	H	0.926761	0.254859	0.038155
600	H	0.853659	0.105193	0.038163
601	C	0.748457	0.278855	0.03737
602	C	0.732866	0.244169	0.048165
603	C	0.751415	0.226761	0.048187
604	C	0.786179	0.243595	0.37005
605	C	0.80163	0.278442	0.360516
606	C	0.783324	0.295716	0.360783
607	N	0.734764	0.19399	0.061557
608	C	0.701865	0.176707	0.074145
609	C	0.683705	0.193987	0.073192
610	N	0.69983	0.226816	0.060558
611	H	0.658923	0.182452	0.082476
612	H	0.795717	0.320765	0.352831
613	H	0.826694	0.291665	0.35237
614	C	0.686331	0.141299	0.088866
615	H	0.704464	0.132444	0.087424
616	H	0.665163	0.125428	0.066622
617	H	0.677321	0.138832	0.12395
618	N	0.729235	0.293966	0.037701
619	N	0.806363	0.229513	0.367688
620	C	0.753098	0.475995	0.037354
621	C	0.787782	0.495088	0.048147
622	C	0.805194	0.031047	0.048175
623	C	0.788359	0.048976	0.370037
624	C	0.753509	0.029581	0.360509
625	C	0.736236	0.494	0.360769
626	N	0.837964	0.047165	0.061544
627	C	0.855246	0.031549	0.074136
628	C	0.837962	0.496108	0.073192
629	N	0.805136	0.479405	0.060547
630	H	0.849499	0.482862	0.082459
631	H	0.711185	0.481346	0.352835
632	H	0.740287	0.041423	0.35237
633	C	0.890657	0.051423	0.088846
634	H	0.899514	0.078411	0.087395
635	H	0.906522	0.046119	0.0666
636	H	0.893128	0.044886	0.123931
637	N	0.737985	0.44166	0.037691
638	N	0.802439	0.083241	0.367681
639	C	0.000902	0.280537	0.04817
640	C	0.982975	0.245773	0.370044
641	C	0.002369	0.230321	0.360502
642	N	0.984787	0.297187	0.061561
643	C	0.000401	0.330082	0.074161
644	H	0.990528	0.205255	0.352363
645	C	0.980528	0.345614	0.088895
646	H	0.95354	0.327483	0.087448
647	H	0.985827	0.366789	0.066661
648	H	0.98707	0.354617	0.123982
649	N	0.948709	0.225589	0.367685
650	C	0.710646	0.335698	0.366639
651	C	0.720184	0.370327	0.366632
652	C	0.696254	0.381342	0.366635
653	C	0.661624	0.356251	0.366632
654	C	0.650609	0.321306	0.366639
655	C	0.675701	0.311767	0.366635
656	H	0.643927	0.363649	0.366389
657	H	0.668301	0.286669	0.366393
658	H	0.74528	0.388023	0.366393
659	C	0.705793	0.415977	0.366147
660	C	0.615974	0.29621	0.366147
661	C	0.735741	0.326156	0.36615
662	H	0.760412	0.344692	0.363668
663	H	0.609837	0.271537	0.363665
664	H	0.687258	0.422114	0.363665
665	C	0.827094	0.189046	0.368837
666	C	0.818362	0.154617	0.368745
667	C	0.842904	0.14444	0.368837
668	C	0.877335	0.170139	0.368748
669	C	0.887511	0.204858	0.36883
670	C	0.861814	0.213589	0.368748
671	H	0.895524	0.163399	0.369216
672	H	0.868552	0.238519	0.369213
673	H	0.793432	0.136426	0.369216
674	C	0.834291	0.110082	0.370088
675	C	0.921871	0.230603	0.370088
676	C	0.801349	0.19766	0.370088
677	H	0.777091	0.178293	0.371497
678	H	0.926761	0.254859	0.37149
679	H	0.853659	0.105193	0.371497
680	C	0.748457	0.278855	0.370703
681	C	0.732866	0.244169	0.381499
682	C	0.751415	0.226761	0.38152
683	C	0.786179	0.243595	0.703382
684	C	0.80163	0.278442	0.693848
685	C	0.783324	0.295716	0.694115
686	N	0.734764	0.19399	0.39489
687	C	0.701865	0.176707	0.40748
688	C	0.683705	0.193987	0.406526
689	N	0.69983	0.226816	0.393891
690	H	0.658923	0.182452	0.415808
691	H	0.795717	0.320765	0.686167
692	H	0.826694	0.291665	0.685705
693	C	0.686331	0.141299	0.4222
694	H	0.704464	0.132444	0.420758
695	H	0.665163	0.125428	0.399956
696	H	0.677321	0.138832	0.457285
697	N	0.729235	0.293966	0.371035
698	N	0.806363	0.229513	0.701024
699	C	0.753098	0.475995	0.370686
700	C	0.787782	0.495088	0.381482
701	C	0.805194	0.031047	0.381509
702	C	0.788359	0.048976	0.703372
703	C	0.753509	0.029581	0.693841
704	C	0.736236	0.494	0.694104
705	N	0.837964	0.047165	0.394879
706	C	0.855246	0.031549	0.40747
707	C	0.837962	0.496108	0.406526
708	N	0.805136	0.479405	0.393881
709	H	0.849499	0.482862	0.415794
710	H	0.711185	0.481346	0.68617
711	H	0.740287	0.041423	0.685705
712	C	0.890657	0.051423	0.42218
713	H	0.899514	0.078411	0.42073
714	H	0.906522	0.046119	0.399932
715	H	0.893128	0.044886	0.457264
716	N	0.737985	0.44166	0.371025
717	N	0.802439	0.083241	0.701017
718	C	0.000902	0.280537	0.381503
719	C	0.982975	0.245773	0.703379
720	C	0.002369	0.230321	0.693838
721	N	0.984787	0.297187	0.394893
722	C	0.000401	0.330082	0.407494
723	H	0.990528	0.205255	0.685698
724	C	0.980528	0.345614	0.422228
725	H	0.95354	0.327483	0.420782
726	H	0.985827	0.366789	0.399994
727	H	0.98707	0.354617	0.457316
728	N	0.948709	0.225589	0.70102
729	C	0.710646	0.335698	0.699971
730	C	0.720184	0.370327	0.699964
731	C	0.696254	0.381342	0.699971
732	C	0.661624	0.356251	0.699964
733	C	0.650609	0.321306	0.699974
734	C	0.675701	0.311767	0.699971
735	H	0.643927	0.363649	0.699725
736	H	0.668301	0.286669	0.699725
737	H	0.74528	0.388023	0.699728
738	C	0.705793	0.415977	0.699478
739	C	0.615974	0.29621	0.699478
740	C	0.735741	0.326156	0.699485
741	H	0.760412	0.344692	0.697003
742	H	0.609837	0.271537	0.697
743	H	0.687258	0.422114	0.697
744	C	0.827094	0.189046	0.702169
745	C	0.818362	0.154617	0.702077
746	C	0.842904	0.14444	0.702169
747	C	0.877335	0.170139	0.702083
748	C	0.887511	0.204858	0.702162
749	C	0.861814	0.213589	0.70208
750	H	0.895524	0.163399	0.702548
751	H	0.868552	0.238519	0.702545
752	H	0.793432	0.136426	0.702552
753	C	0.834291	0.110082	0.70342
754	C	0.921871	0.230603	0.703423
755	C	0.801349	0.19766	0.703423
756	H	0.777091	0.178293	0.704832
757	H	0.926761	0.254859	0.704822
758	H	0.853659	0.105193	0.704832
759	C	0.748457	0.278855	0.704039
760	C	0.732866	0.244169	0.714831
761	C	0.751415	0.226761	0.714855
762	C	0.786179	0.243595	0.036717
763	C	0.80163	0.278442	0.027181
764	C	0.783324	0.295716	0.027449
765	N	0.734764	0.19399	0.728225
766	C	0.701865	0.176707	0.740812
767	C	0.683705	0.193987	0.739858
768	N	0.69983	0.226816	0.727227
769	H	0.658923	0.182452	0.749143
770	H	0.795717	0.320765	0.019498
771	H	0.826694	0.291665	0.019037
772	C	0.686331	0.141299	0.755532
773	H	0.704464	0.132444	0.75409
774	H	0.665163	0.125428	0.733288
775	H	0.677321	0.138832	0.790617
776	N	0.729235	0.293966	0.704367
777	N	0.806363	0.229513	0.034355
778	C	0.753098	0.475995	0.704022
779	C	0.787782	0.495088	0.714814
780	C	0.805194	0.031047	0.714841
781	C	0.788359	0.048976	0.036704
782	C	0.753509	0.029581	0.027175
783	C	0.736236	0.494	0.027436
784	N	0.837964	0.047165	0.728211
785	C	0.855246	0.031549	0.740802
786	C	0.837962	0.496108	0.739858
787	N	0.805136	0.479405	0.727213
788	H	0.849499	0.482862	0.749126
789	H	0.711185	0.481346	0.019501
790	H	0.740287	0.041423	0.019038
791	C	0.890657	0.051423	0.755512
792	H	0.899514	0.078411	0.754062
793	H	0.906522	0.046119	0.733267
794	H	0.893128	0.044886	0.790596
795	N	0.737985	0.44166	0.70436
796	N	0.802439	0.083241	0.034349
797	C	0.000902	0.280537	0.714838
798	C	0.982975	0.245773	0.03671
799	C	0.002369	0.230321	0.02717
800	N	0.984787	0.297187	0.728228
801	C	0.000401	0.330082	0.740829
802	H	0.990528	0.205255	0.01903
803	C	0.980528	0.345614	0.755563
804	H	0.95354	0.327483	0.754117
805	H	0.985827	0.366789	0.733329
806	H	0.98707	0.354617	0.790651
807	N	0.948709	0.225589	0.034352
808	C	0.710644	0.835696	0.033305
809	C	0.720184	0.870326	0.033298
810	C	0.696252	0.88134	0.033303
811	C	0.661624	0.856249	0.033297
812	C	0.650609	0.821304	0.033306
813	C	0.675699	0.811765	0.033303
814	H	0.643927	0.86365	0.033056
815	H	0.6683	0.786669	0.033059
816	H	0.74528	0.888023	0.033059
817	C	0.705794	0.915977	0.032812
818	C	0.615972	0.796208	0.032812
819	C	0.73574	0.826157	0.032816
820	H	0.760413	0.844693	0.030336
821	H	0.609837	0.771538	0.030332
822	H	0.687256	0.922112	0.030331
823	C	0.827094	0.689045	0.035502
824	C	0.818361	0.654616	0.03541
825	C	0.842906	0.64444	0.035502
826	C	0.877334	0.670138	0.035416
827	C	0.887511	0.704856	0.035495
828	C	0.861813	0.713589	0.035414
829	H	0.895526	0.6634	0.035882
830	H	0.868552	0.738517	0.035879
831	H	0.793433	0.636425	0.035883
832	C	0.834292	0.61008	0.036754
833	C	0.921869	0.730602	0.036754
834	C	0.801348	0.69766	0.036755
835	H	0.777092	0.678292	0.038163
836	H	0.92676	0.75486	0.038155
837	H	0.85366	0.605192	0.038163
838	C	0.748458	0.778853	0.03737
839	C	0.732864	0.744168	0.048165
840	C	0.751413	0.72676	0.048187
841	C	0.786177	0.743594	0.37005
842	C	0.80163	0.778442	0.360516
843	C	0.783322	0.795715	0.360783
844	N	0.734763	0.693991	0.061557
845	C	0.701863	0.676706	0.074145
846	C	0.683703	0.693986	0.073192
847	N	0.699828	0.726815	0.060558
848	H	0.658925	0.682452	0.082476
849	H	0.795715	0.820763	0.352831
850	H	0.826695	0.791665	0.35237
851	C	0.686329	0.641298	0.088866
852	H	0.704465	0.632444	0.087424
853	H	0.665162	0.625428	0.066622
854	H	0.677321	0.63883	0.12395
855	N	0.729233	0.793965	0.037701
856	N	0.806361	0.729512	0.367688
857	C	0.753097	0.975996	0.037354
858	C	0.787784	0.995088	0.048147
859	C	0.805193	0.531047	0.048175
860	C	0.788357	0.548974	0.370037
861	C	0.75351	0.529582	0.360509
862	C	0.736236	0.993998	0.360769
863	N	0.837964	0.547164	0.061544
864	C	0.855244	0.531548	0.074136
865	C	0.837961	0.996108	0.073192
866	N	0.805134	0.979403	0.060547
867	H	0.849497	0.98286	0.082459
868	H	0.711185	0.981344	0.352835
869	H	0.740285	0.541422	0.35237
870	C	0.890655	0.551422	0.088846
871	H	0.899513	0.578412	0.087395
872	H	0.90652	0.546118	0.0666
873	H	0.893126	0.544885	0.123931
874	N	0.737984	0.94166	0.037691
875	N	0.80244	0.583241	0.367681
876	C	0.000903	0.780538	0.04817
877	C	0.982973	0.745772	0.370044
878	C	0.00237	0.73032	0.360502
879	N	0.984785	0.797185	0.061561
880	C	0.000399	0.83008	0.074161
881	H	0.990526	0.705254	0.352363
882	C	0.980526	0.845612	0.088895
883	H	0.953538	0.827481	0.087448
884	H	0.985827	0.866788	0.066661
885	H	0.987068	0.854615	0.123982
886	N	0.948709	0.725589	0.367685
887	C	0.710644	0.835696	0.366639
888	C	0.720184	0.870326	0.366632
889	C	0.696252	0.88134	0.366635
890	C	0.661624	0.856249	0.366632
891	C	0.650609	0.821304	0.366639
892	C	0.675699	0.811765	0.366635
893	H	0.643927	0.86365	0.366389
894	H	0.6683	0.786669	0.366393
895	H	0.74528	0.888023	0.366393
896	C	0.705794	0.915977	0.366147
897	C	0.615972	0.796208	0.366147
898	C	0.73574	0.826157	0.36615
899	H	0.760413	0.844693	0.363668
900	H	0.609837	0.771538	0.363665
901	H	0.687256	0.922112	0.363665
902	C	0.827094	0.689045	0.368837
903	C	0.818361	0.654616	0.368745
904	C	0.842906	0.64444	0.368837
905	C	0.877334	0.670138	0.368748
906	C	0.887511	0.704856	0.36883
907	C	0.861813	0.713589	0.368748
908	H	0.895526	0.6634	0.369216
909	H	0.868552	0.738517	0.369213
910	H	0.793433	0.636425	0.369216
911	C	0.834292	0.61008	0.370088
912	C	0.921869	0.730602	0.370088
913	C	0.801348	0.69766	0.370088
914	H	0.777092	0.678292	0.371497
915	H	0.92676	0.75486	0.37149
916	H	0.85366	0.605192	0.371497
917	C	0.748458	0.778853	0.370703
918	C	0.732864	0.744168	0.381499
919	C	0.751413	0.72676	0.38152
920	C	0.786177	0.743594	0.703382
921	C	0.80163	0.778442	0.693848
922	C	0.783322	0.795715	0.694115
923	N	0.734763	0.693991	0.39489
924	C	0.701863	0.676706	0.40748
925	C	0.683703	0.693986	0.406526
926	N	0.699828	0.726815	0.393891
927	H	0.658925	0.682452	0.415808
928	H	0.795715	0.820763	0.686167
929	H	0.826695	0.791665	0.685705
930	C	0.686329	0.641298	0.4222
931	H	0.704465	0.632444	0.420758
932	H	0.665162	0.625428	0.399956
933	H	0.677321	0.63883	0.457285
934	N	0.729233	0.793965	0.371035
935	N	0.806361	0.729512	0.701024
936	C	0.753097	0.975996	0.370686
937	C	0.787784	0.995088	0.381482
938	C	0.805193	0.531047	0.381509
939	C	0.788357	0.548974	0.703372
940	C	0.75351	0.529582	0.693841
941	C	0.736236	0.993998	0.694104
942	N	0.837964	0.547164	0.394879
943	C	0.855244	0.531548	0.40747
944	C	0.837961	0.996108	0.406526
945	N	0.805134	0.979403	0.393881
946	H	0.849497	0.98286	0.415794
947	H	0.711185	0.981344	0.68617
948	H	0.740285	0.541422	0.685705
949	C	0.890655	0.551422	0.42218
950	H	0.899513	0.578412	0.42073
951	H	0.90652	0.546118	0.399932
952	H	0.893126	0.544885	0.457264
953	N	0.737984	0.94166	0.371025
954	N	0.80244	0.583241	0.701017
955	C	0.000903	0.780538	0.381503
956	C	0.982973	0.745772	0.703379
957	C	0.00237	0.73032	0.693838
958	N	0.984785	0.797185	0.394893
959	C	0.000399	0.83008	0.407494
960	H	0.990526	0.705254	0.685698
961	C	0.980526	0.845612	0.422228
962	H	0.953538	0.827481	0.420782
963	H	0.985827	0.866788	0.399994
964	H	0.987068	0.854615	0.457316
965	N	0.948709	0.725589	0.70102
966	C	0.710644	0.835696	0.699971
967	C	0.720184	0.870326	0.699964
968	C	0.696252	0.88134	0.699971
969	C	0.661624	0.856249	0.699964
970	C	0.650609	0.821304	0.699974
971	C	0.675699	0.811765	0.699971
972	H	0.643927	0.86365	0.699725
973	H	0.6683	0.786669	0.699725
974	H	0.74528	0.888023	0.699728
975	C	0.705794	0.915977	0.699478
976	C	0.615972	0.796208	0.699478
977	C	0.73574	0.826157	0.699485
978	H	0.760413	0.844693	0.697003
979	H	0.609837	0.771538	0.697
980	H	0.687256	0.922112	0.697
981	C	0.827094	0.689045	0.702169
982	C	0.818361	0.654616	0.702077
983	C	0.842906	0.64444	0.702169
984	C	0.877334	0.670138	0.702083
985	C	0.887511	0.704856	0.702162
986	C	0.861813	0.713589	0.70208
987	H	0.895526	0.6634	0.702548
988	H	0.868552	0.738517	0.702545
989	H	0.793433	0.636425	0.702552
990	C	0.834292	0.61008	0.70342
991	C	0.921869	0.730602	0.703423
992	C	0.801348	0.69766	0.703423
993	H	0.777092	0.678292	0.704832
994	H	0.92676	0.75486	0.704822
995	H	0.85366	0.605192	0.704832
996	C	0.748458	0.778853	0.704039
997	C	0.732864	0.744168	0.714831
998	C	0.751413	0.72676	0.714855
999	C	0.786177	0.743594	0.036717
1000	C	0.80163	0.778442	0.027181
1001	C	0.783322	0.795715	0.027449
1002	N	0.734763	0.693991	0.728225
1003	C	0.701863	0.676706	0.740812
1004	C	0.683703	0.693986	0.739858
1005	N	0.699828	0.726815	0.727227
1006	H	0.658925	0.682452	0.749143
1007	H	0.795715	0.820763	0.019498
1008	H	0.826695	0.791665	0.019037
1009	C	0.686329	0.641298	0.755532
1010	H	0.704465	0.632444	0.75409
1011	H	0.665162	0.625428	0.733288
1012	H	0.677321	0.63883	0.790617
1013	N	0.729233	0.793965	0.704367
1014	N	0.806361	0.729512	0.034355
1015	C	0.753097	0.975996	0.704022
1016	C	0.787784	0.995088	0.714814
1017	C	0.805193	0.531047	0.714841
1018	C	0.788357	0.548974	0.036704
1019	C	0.75351	0.529582	0.027175
1020	C	0.736236	0.993998	0.027436
1021	N	0.837964	0.547164	0.728211
1022	C	0.855244	0.531548	0.740802
1023	C	0.837961	0.996108	0.739858
1024	N	0.805134	0.979403	0.727213
1025	H	0.849497	0.98286	0.749126
1026	H	0.711185	0.981344	0.019501
1027	H	0.740285	0.541422	0.019038
1028	C	0.890655	0.551422	0.755512
1029	H	0.899513	0.578412	0.754062
1030	H	0.90652	0.546118	0.733267
1031	H	0.893126	0.544885	0.790596
1032	N	0.737984	0.94166	0.70436
1033	N	0.80244	0.583241	0.034349
1034	C	0.000903	0.780538	0.714838
1035	C	0.982973	0.745772	0.03671
1036	C	0.00237	0.73032	0.02717
1037	N	0.984785	0.797185	0.728228
1038	C	0.000399	0.83008	0.740829
1039	H	0.990526	0.705254	0.01903
1040	C	0.980526	0.845612	0.755563
1041	H	0.953538	0.827481	0.754117
1042	H	0.985827	0.866788	0.733329
1043	H	0.987068	0.854615	0.790651
1044	N	0.948709	0.725589	0.034352
