data_C432H216N216_2018-02-15_10:45:01
#******************************************
#
# CIF file created by Zeo++
# Zeo++ is an open source package to
# analyze microporous materials
#
#*******************************************

_cell_length_a		45.3302   
_cell_length_b		45.3302   
_cell_length_c		29.181   
_cell_angle_alpha		90   
_cell_angle_beta		90   
_cell_angle_gamma		120   

_symmetry_space_group_name_H-M		'P1'
_symmetry_Int_Tables_number		1
_symmetry_cell_setting		Monoclinic

loop_
_symmetry_equiv_pos_as_xyz
'+x,+y,+z'

loop_
_atom_site_label
_atom_site_type_symbol
_atom_site_fract_x
_atom_site_fract_y
_atom_site_fract_z
1	C	0.197789	0.381549	0.036585
2	N	0.164117	0.357201	0.036578
3	C	0.153531	0.323256	0.036583
4	N	0.177881	0.313933	0.036577
5	C	0.211825	0.337292	0.036584
6	N	0.221149	0.370964	0.03658
7	C	0.237062	0.327754	0.03653
8	C	0.207325	0.416322	0.036532
9	C	0.118757	0.298017	0.036527
10	H	0.11273	0.273066	0.036267
11	H	0.188402	0.422351	0.036269
12	H	0.262014	0.346678	0.036272
13	C	0.345789	0.146916	0.036689
14	N	0.379066	0.172333	0.036701
15	N	0.362748	0.213749	0.0367
16	C	0.329192	0.189293	0.036689
17	N	0.321331	0.156016	0.036699
18	C	0.302699	0.197046	0.036834
19	C	0.338034	0.112669	0.036836
20	H	0.358183	0.108576	0.036979
21	H	0.278458	0.176897	0.036974
22	C	0.249026	0.279287	0.037029
23	C	0.23214	0.243263	0.038277
24	C	0.25067	0.225372	0.038244
25	C	0.286868	0.243229	0.37023
26	C	0.303393	0.279218	0.369137
27	C	0.285052	0.296868	0.369192
28	N	0.232204	0.190776	0.039757
29	C	0.197721	0.172559	0.041215
30	C	0.17967	0.190234	0.041188
31	N	0.197479	0.22473	0.039743
32	H	0.185318	0.146571	0.042316
33	H	0.153674	0.177525	0.042274
34	H	0.298429	0.322879	0.368267
35	H	0.329447	0.29316	0.368178
36	N	0.229793	0.29482	0.037075
37	N	0.307523	0.229193	0.369929
38	C	0.255795	0.476757	0.037033
39	C	0.291817	0.495892	0.038287
40	C	0.30971	0.032314	0.038253
41	C	0.291852	0.050654	0.370234
42	C	0.255864	0.031192	0.369134
43	C	0.238212	0.495199	0.369189
44	N	0.344305	0.048445	0.039774
45	C	0.36252	0.032178	0.04124
46	C	0.344847	0.496453	0.041213
47	N	0.310351	0.479765	0.03976
48	H	0.357555	0.483166	0.042305
49	H	0.212203	0.482567	0.36826
50	H	0.241921	0.043303	0.368171
51	N	0.240261	0.441989	0.03708
52	N	0.305889	0.085347	0.369929
53	C	0.058325	0.286055	0.037029
54	C	0.039188	0.302941	0.038281
55	C	0.039882	0.250029	0.369189
56	C	0.038628	0.355411	0.041198
57	N	0.055316	0.337602	0.039749
58	H	0.051916	0.381406	0.042287
59	H	0.052515	0.236653	0.368263
60	N	0.093092	0.305287	0.037075
61	C	0.197789	0.381549	0.369919
62	N	0.164117	0.357201	0.369912
63	C	0.153531	0.323256	0.369915
64	N	0.177881	0.313933	0.369912
65	C	0.211825	0.337292	0.369919
66	N	0.221149	0.370964	0.369915
67	C	0.237062	0.327754	0.369864
68	C	0.207325	0.416322	0.369867
69	C	0.118757	0.298017	0.36986
70	H	0.11273	0.273066	0.3696
71	H	0.188402	0.422351	0.369603
72	H	0.262014	0.346678	0.369607
73	C	0.345789	0.146916	0.370021
74	N	0.379066	0.172333	0.370035
75	N	0.362748	0.213749	0.370035
76	C	0.329192	0.189293	0.370021
77	N	0.321331	0.156016	0.370032
78	C	0.302699	0.197046	0.370169
79	C	0.338034	0.112669	0.370169
80	H	0.358183	0.108576	0.370313
81	H	0.278458	0.176897	0.370306
82	C	0.249026	0.279287	0.370364
83	C	0.23214	0.243263	0.371611
84	C	0.25067	0.225372	0.371577
85	C	0.286868	0.243229	0.703564
86	C	0.303393	0.279218	0.702474
87	C	0.285052	0.296868	0.702525
88	N	0.232204	0.190776	0.373092
89	C	0.197721	0.172559	0.374548
90	C	0.17967	0.190234	0.374521
91	N	0.197479	0.22473	0.373075
92	H	0.185318	0.146571	0.375648
93	H	0.153674	0.177525	0.375607
94	H	0.298429	0.322879	0.7016
95	H	0.329447	0.29316	0.701514
96	N	0.229793	0.29482	0.370409
97	N	0.307523	0.229193	0.703262
98	C	0.255795	0.476757	0.370367
99	C	0.291817	0.495892	0.371622
100	C	0.30971	0.032314	0.371587
101	C	0.291852	0.050654	0.703567
102	C	0.255864	0.031192	0.70247
103	C	0.238212	0.495199	0.702522
104	N	0.344305	0.048445	0.373109
105	C	0.36252	0.032178	0.374572
106	C	0.344847	0.496453	0.374545
107	N	0.310351	0.479765	0.373095
108	H	0.357555	0.483166	0.375638
109	H	0.212203	0.482567	0.701593
110	H	0.241921	0.043303	0.701504
111	N	0.240261	0.441989	0.370415
112	N	0.305889	0.085347	0.703262
113	C	0.058325	0.286055	0.370364
114	C	0.039188	0.302941	0.371615
115	C	0.039882	0.250029	0.702522
116	C	0.038628	0.355411	0.374531
117	N	0.055316	0.337602	0.373082
118	H	0.051916	0.381406	0.375621
119	H	0.052515	0.236653	0.701596
120	N	0.093092	0.305287	0.370409
121	C	0.197789	0.381549	0.703252
122	N	0.164117	0.357201	0.703245
123	C	0.153531	0.323256	0.703252
124	N	0.177881	0.313933	0.703245
125	C	0.211825	0.337292	0.703252
126	N	0.221149	0.370964	0.703248
127	C	0.237062	0.327754	0.703197
128	C	0.207325	0.416322	0.7032
129	C	0.118757	0.298017	0.703193
130	H	0.11273	0.273066	0.702933
131	H	0.188402	0.422351	0.702936
132	H	0.262014	0.346678	0.70294
133	C	0.345789	0.146916	0.703358
134	N	0.379066	0.172333	0.703368
135	N	0.362748	0.213749	0.703368
136	C	0.329192	0.189293	0.703354
137	N	0.321331	0.156016	0.703365
138	C	0.302699	0.197046	0.703502
139	C	0.338034	0.112669	0.703502
140	H	0.358183	0.108576	0.703646
141	H	0.278458	0.176897	0.703642
142	C	0.249026	0.279287	0.703697
143	C	0.23214	0.243263	0.704945
144	C	0.25067	0.225372	0.70491
145	C	0.286868	0.243229	0.036896
146	C	0.303393	0.279218	0.035805
147	C	0.285052	0.296868	0.035857
148	N	0.232204	0.190776	0.706425
149	C	0.197721	0.172559	0.707881
150	C	0.17967	0.190234	0.707854
151	N	0.197479	0.22473	0.706411
152	H	0.185318	0.146571	0.708981
153	H	0.153674	0.177525	0.70894
154	H	0.298429	0.322879	0.034934
155	H	0.329447	0.29316	0.034846
156	N	0.229793	0.29482	0.703742
157	N	0.307523	0.229193	0.036596
158	C	0.255795	0.476757	0.703701
159	C	0.291817	0.495892	0.704955
160	C	0.30971	0.032314	0.704921
161	C	0.291852	0.050654	0.036899
162	C	0.255864	0.031192	0.035802
163	C	0.238212	0.495199	0.035854
164	N	0.344305	0.048445	0.706442
165	C	0.36252	0.032178	0.707909
166	C	0.344847	0.496453	0.707881
167	N	0.310351	0.479765	0.706428
168	H	0.357555	0.483166	0.708971
169	H	0.212203	0.482567	0.034927
170	H	0.241921	0.043303	0.034837
171	N	0.240261	0.441989	0.703749
172	N	0.305889	0.085347	0.036596
173	C	0.058325	0.286055	0.703697
174	C	0.039188	0.302941	0.704948
175	C	0.039882	0.250029	0.035854
176	C	0.038628	0.355411	0.707864
177	N	0.055316	0.337602	0.706418
178	H	0.051916	0.381406	0.708954
179	H	0.052515	0.236653	0.034929
180	N	0.093092	0.305287	0.703742
181	C	0.197789	0.881549	0.036585
182	N	0.164116	0.8572	0.036578
183	C	0.153531	0.823257	0.036583
184	N	0.17788	0.813931	0.036577
185	C	0.211826	0.837293	0.036584
186	N	0.22115	0.870965	0.03658
187	C	0.237062	0.827755	0.03653
188	C	0.207324	0.916323	0.036532
189	C	0.118757	0.798018	0.036527
190	H	0.112729	0.773067	0.036267
191	H	0.188401	0.92235	0.036269
192	H	0.262014	0.846679	0.036272
193	C	0.345788	0.646917	0.036689
194	N	0.379065	0.672331	0.036701
195	N	0.362748	0.713748	0.0367
196	C	0.329194	0.689294	0.036689
197	N	0.321332	0.656016	0.036699
198	C	0.302699	0.697045	0.036834
199	C	0.338034	0.612668	0.036836
200	H	0.358184	0.608577	0.036979
201	H	0.278457	0.676896	0.036974
202	C	0.249025	0.779285	0.037029
203	C	0.23214	0.743264	0.038277
204	C	0.25067	0.725371	0.038244
205	C	0.286869	0.743231	0.37023
206	C	0.303392	0.779216	0.369137
207	C	0.285052	0.796869	0.369192
208	N	0.232205	0.690776	0.039757
209	C	0.19772	0.672558	0.041215
210	C	0.17967	0.690234	0.041188
211	N	0.197479	0.72473	0.039743
212	H	0.185318	0.64657	0.042316
213	H	0.153674	0.677525	0.042274
214	H	0.298428	0.822877	0.368267
215	H	0.329447	0.79316	0.368178
216	N	0.229793	0.794821	0.037075
217	N	0.307523	0.729192	0.369929
218	C	0.255795	0.976755	0.037033
219	C	0.291818	0.995893	0.038287
220	C	0.309709	0.532314	0.038253
221	C	0.291851	0.550654	0.370234
222	C	0.255864	0.53119	0.369134
223	C	0.238211	0.995198	0.369189
224	N	0.344305	0.548446	0.039774
225	C	0.362521	0.532179	0.04124
226	C	0.344846	0.996451	0.041213
227	N	0.310351	0.979766	0.03976
228	H	0.357554	0.983164	0.042305
229	H	0.212202	0.982566	0.36826
230	H	0.241921	0.543303	0.368171
231	N	0.240261	0.941989	0.03708
232	N	0.305888	0.585346	0.369929
233	C	0.058326	0.786056	0.037029
234	C	0.039189	0.802942	0.038281
235	C	0.039883	0.750029	0.369189
236	C	0.03863	0.855412	0.041198
237	N	0.055314	0.837601	0.039749
238	H	0.051916	0.881407	0.042287
239	H	0.052515	0.736653	0.368263
240	N	0.093093	0.805288	0.037075
241	C	0.197789	0.881549	0.369919
242	N	0.164116	0.8572	0.369912
243	C	0.153531	0.823257	0.369915
244	N	0.17788	0.813931	0.369912
245	C	0.211826	0.837293	0.369919
246	N	0.22115	0.870965	0.369915
247	C	0.237062	0.827755	0.369864
248	C	0.207324	0.916323	0.369867
249	C	0.118757	0.798018	0.36986
250	H	0.112729	0.773067	0.3696
251	H	0.188401	0.92235	0.369603
252	H	0.262014	0.846679	0.369607
253	C	0.345788	0.646917	0.370021
254	N	0.379065	0.672331	0.370035
255	N	0.362748	0.713748	0.370035
256	C	0.329194	0.689294	0.370021
257	N	0.321332	0.656016	0.370032
258	C	0.302699	0.697045	0.370169
259	C	0.338034	0.612668	0.370169
260	H	0.358184	0.608577	0.370313
261	H	0.278457	0.676896	0.370306
262	C	0.249025	0.779285	0.370364
263	C	0.23214	0.743264	0.371611
264	C	0.25067	0.725371	0.371577
265	C	0.286869	0.743231	0.703564
266	C	0.303392	0.779216	0.702474
267	C	0.285052	0.796869	0.702525
268	N	0.232205	0.690776	0.373092
269	C	0.19772	0.672558	0.374548
270	C	0.17967	0.690234	0.374521
271	N	0.197479	0.72473	0.373075
272	H	0.185318	0.64657	0.375648
273	H	0.153674	0.677525	0.375607
274	H	0.298428	0.822877	0.7016
275	H	0.329447	0.79316	0.701514
276	N	0.229793	0.794821	0.370409
277	N	0.307523	0.729192	0.703262
278	C	0.255795	0.976755	0.370367
279	C	0.291818	0.995893	0.371622
280	C	0.309709	0.532314	0.371587
281	C	0.291851	0.550654	0.703567
282	C	0.255864	0.53119	0.70247
283	C	0.238211	0.995198	0.702522
284	N	0.344305	0.548446	0.373109
285	C	0.362521	0.532179	0.374572
286	C	0.344846	0.996451	0.374545
287	N	0.310351	0.979766	0.373095
288	H	0.357554	0.983164	0.375638
289	H	0.212202	0.982566	0.701593
290	H	0.241921	0.543303	0.701504
291	N	0.240261	0.941989	0.370415
292	N	0.305888	0.585346	0.703262
293	C	0.058326	0.786056	0.370364
294	C	0.039189	0.802942	0.371615
295	C	0.039883	0.750029	0.702522
296	C	0.03863	0.855412	0.374531
297	N	0.055314	0.837601	0.373082
298	H	0.051916	0.881407	0.375621
299	H	0.052515	0.736653	0.701596
300	N	0.093093	0.805288	0.370409
301	C	0.197789	0.881549	0.703252
302	N	0.164116	0.8572	0.703245
303	C	0.153531	0.823257	0.703252
304	N	0.17788	0.813931	0.703245
305	C	0.211826	0.837293	0.703252
306	N	0.22115	0.870965	0.703248
307	C	0.237062	0.827755	0.703197
308	C	0.207324	0.916323	0.7032
309	C	0.118757	0.798018	0.703193
310	H	0.112729	0.773067	0.702933
311	H	0.188401	0.92235	0.702936
312	H	0.262014	0.846679	0.70294
313	C	0.345788	0.646917	0.703358
314	N	0.379065	0.672331	0.703368
315	N	0.362748	0.713748	0.703368
316	C	0.329194	0.689294	0.703354
317	N	0.321332	0.656016	0.703365
318	C	0.302699	0.697045	0.703502
319	C	0.338034	0.612668	0.703502
320	H	0.358184	0.608577	0.703646
321	H	0.278457	0.676896	0.703642
322	C	0.249025	0.779285	0.703697
323	C	0.23214	0.743264	0.704945
324	C	0.25067	0.725371	0.70491
325	C	0.286869	0.743231	0.036896
326	C	0.303392	0.779216	0.035805
327	C	0.285052	0.796869	0.035857
328	N	0.232205	0.690776	0.706425
329	C	0.19772	0.672558	0.707881
330	C	0.17967	0.690234	0.707854
331	N	0.197479	0.72473	0.706411
332	H	0.185318	0.64657	0.708981
333	H	0.153674	0.677525	0.70894
334	H	0.298428	0.822877	0.034934
335	H	0.329447	0.79316	0.034846
336	N	0.229793	0.794821	0.703742
337	N	0.307523	0.729192	0.036596
338	C	0.255795	0.976755	0.703701
339	C	0.291818	0.995893	0.704955
340	C	0.309709	0.532314	0.704921
341	C	0.291851	0.550654	0.036899
342	C	0.255864	0.53119	0.035802
343	C	0.238211	0.995198	0.035854
344	N	0.344305	0.548446	0.706442
345	C	0.362521	0.532179	0.707909
346	C	0.344846	0.996451	0.707881
347	N	0.310351	0.979766	0.706428
348	H	0.357554	0.983164	0.708971
349	H	0.212202	0.982566	0.034927
350	H	0.241921	0.543303	0.034837
351	N	0.240261	0.941989	0.703749
352	N	0.305888	0.585346	0.036596
353	C	0.058326	0.786056	0.703697
354	C	0.039189	0.802942	0.704948
355	C	0.039883	0.750029	0.035854
356	C	0.03863	0.855412	0.707864
357	N	0.055314	0.837601	0.706418
358	H	0.051916	0.881407	0.708954
359	H	0.052515	0.736653	0.034929
360	N	0.093093	0.805288	0.703742
361	H	0.38851	0.045764	0.042346
362	H	0.38851	0.045764	0.375679
363	H	0.38851	0.045764	0.709012
364	H	0.38851	0.545763	0.042346
365	H	0.38851	0.545763	0.375679
366	H	0.38851	0.545763	0.709012
367	C	0.388164	0.205888	0.036691
368	C	0.422413	0.232382	0.036837
369	H	0.426504	0.256623	0.036977
370	C	0.502767	0.284412	0.038248
371	C	0.484427	0.248213	0.37023
372	C	0.50389	0.231689	0.369137
373	N	0.486637	0.302877	0.039765
374	C	0.502903	0.33736	0.041226
375	H	0.489319	0.349763	0.04233
376	H	0.491778	0.205634	0.368174
377	N	0.449734	0.227558	0.369932
378	C	0.388164	0.205888	0.370025
379	C	0.422413	0.232382	0.370172
380	H	0.426504	0.256623	0.370309
381	C	0.502767	0.284412	0.371581
382	C	0.484427	0.248213	0.703564
383	C	0.50389	0.231689	0.70247
384	N	0.486637	0.302877	0.373099
385	C	0.502903	0.33736	0.374559
386	H	0.489319	0.349763	0.375662
387	H	0.491778	0.205634	0.701507
388	N	0.449734	0.227558	0.703265
389	C	0.388164	0.205888	0.703358
390	C	0.422413	0.232382	0.703505
391	H	0.426504	0.256623	0.703642
392	C	0.502767	0.284412	0.704914
393	C	0.484427	0.248213	0.036898
394	C	0.50389	0.231689	0.035803
395	N	0.486637	0.302877	0.706432
396	C	0.502903	0.33736	0.707895
397	H	0.489319	0.349763	0.708999
398	H	0.491778	0.205634	0.034842
399	N	0.449734	0.227558	0.036597
400	C	0.388165	0.705887	0.036691
401	C	0.422412	0.732382	0.036837
402	H	0.426505	0.756624	0.036977
403	C	0.502767	0.78441	0.038248
404	C	0.484427	0.748213	0.37023
405	C	0.50389	0.731689	0.369137
406	N	0.486636	0.802876	0.039765
407	C	0.502903	0.837359	0.041226
408	H	0.489317	0.849762	0.04233
409	H	0.491779	0.705635	0.368174
410	N	0.449734	0.727557	0.369932
411	C	0.388165	0.705887	0.370025
412	C	0.422412	0.732382	0.370172
413	H	0.426505	0.756624	0.370309
414	C	0.502767	0.78441	0.371581
415	C	0.484427	0.748213	0.703564
416	C	0.50389	0.731689	0.70247
417	N	0.486636	0.802876	0.373099
418	C	0.502903	0.837359	0.374559
419	H	0.489317	0.849762	0.375662
420	H	0.491779	0.705635	0.701507
421	N	0.449734	0.727557	0.703265
422	C	0.388165	0.705887	0.703358
423	C	0.422412	0.732382	0.703505
424	H	0.426505	0.756624	0.703642
425	C	0.502767	0.78441	0.704914
426	C	0.484427	0.748213	0.036898
427	C	0.50389	0.731689	0.035803
428	N	0.486636	0.802876	0.706432
429	C	0.502903	0.837359	0.707895
430	H	0.489317	0.849762	0.708999
431	H	0.491779	0.705635	0.034842
432	N	0.449734	0.727557	0.036597
433	C	0.539188	0.302941	0.038281
434	C	0.538628	0.355411	0.041198
435	C	0.539188	0.302941	0.371615
436	C	0.538628	0.355411	0.374531
437	C	0.539188	0.302941	0.704948
438	C	0.538628	0.355411	0.707864
439	C	0.539189	0.802942	0.038281
440	C	0.538629	0.855412	0.041198
441	C	0.539189	0.802942	0.371615
442	C	0.538629	0.855412	0.374531
443	C	0.539189	0.802942	0.704948
444	C	0.538629	0.855412	0.707864
445	C	0.653532	0.323256	0.036583
446	C	0.618757	0.298017	0.036527
447	H	0.61273	0.273066	0.036267
448	H	0.653675	0.177525	0.042274
449	C	0.558325	0.286055	0.037029
450	C	0.539881	0.250029	0.369189
451	N	0.555316	0.337602	0.039749
452	H	0.551917	0.381406	0.042287
453	H	0.552516	0.236653	0.368263
454	N	0.593092	0.305287	0.037075
455	C	0.653532	0.323256	0.369915
456	C	0.618757	0.298017	0.36986
457	H	0.61273	0.273066	0.3696
458	H	0.653675	0.177525	0.375607
459	C	0.558325	0.286055	0.370364
460	C	0.539881	0.250029	0.702522
461	N	0.555316	0.337602	0.373082
462	H	0.551917	0.381406	0.375621
463	H	0.552516	0.236653	0.701596
464	N	0.593092	0.305287	0.370409
465	C	0.653532	0.323256	0.703252
466	C	0.618757	0.298017	0.703193
467	H	0.61273	0.273066	0.702933
468	H	0.653675	0.177525	0.70894
469	C	0.558325	0.286055	0.703697
470	C	0.539881	0.250029	0.035854
471	N	0.555316	0.337602	0.706418
472	H	0.551917	0.381406	0.708954
473	H	0.552516	0.236653	0.034929
474	N	0.593092	0.305287	0.703742
475	C	0.653531	0.823257	0.036583
476	C	0.618758	0.798018	0.036527
477	H	0.612729	0.773067	0.036267
478	H	0.653674	0.677525	0.042274
479	C	0.558326	0.786056	0.037029
480	C	0.539882	0.750029	0.369189
481	N	0.555315	0.837601	0.039749
482	H	0.551916	0.881407	0.042287
483	H	0.552515	0.736653	0.368263
484	N	0.593093	0.805288	0.037075
485	C	0.653531	0.823257	0.369915
486	C	0.618758	0.798018	0.36986
487	H	0.612729	0.773067	0.3696
488	H	0.653674	0.677525	0.375607
489	C	0.558326	0.786056	0.370364
490	C	0.539882	0.750029	0.702522
491	N	0.555315	0.837601	0.373082
492	H	0.551916	0.881407	0.375621
493	H	0.552515	0.736653	0.701596
494	N	0.593093	0.805288	0.370409
495	C	0.653531	0.823257	0.703252
496	C	0.618758	0.798018	0.703193
497	H	0.612729	0.773067	0.702933
498	H	0.653674	0.677525	0.70894
499	C	0.558326	0.786056	0.703697
500	C	0.539882	0.750029	0.035854
501	N	0.555315	0.837601	0.706418
502	H	0.551916	0.881407	0.708954
503	H	0.552515	0.736653	0.034929
504	N	0.593093	0.805288	0.703742
505	C	0.697789	0.381549	0.036585
506	N	0.664116	0.357201	0.036578
507	N	0.677882	0.313933	0.036577
508	C	0.711825	0.337292	0.036584
509	N	0.721149	0.370964	0.03658
510	C	0.737062	0.327754	0.03653
511	C	0.707325	0.416322	0.036532
512	H	0.688403	0.422351	0.036269
513	H	0.762013	0.346678	0.036272
514	C	0.845789	0.146916	0.036689
515	N	0.879066	0.172333	0.036701
516	C	0.888164	0.205888	0.036691
517	N	0.862748	0.213749	0.0367
518	C	0.829194	0.189293	0.036689
519	N	0.821331	0.156016	0.036699
520	C	0.8027	0.197046	0.036834
521	C	0.838034	0.112669	0.036836
522	C	0.922413	0.232382	0.036837
523	H	0.926506	0.256623	0.036977
524	H	0.858185	0.108576	0.036979
525	H	0.778459	0.176897	0.036974
526	C	0.749027	0.279287	0.037029
527	C	0.732141	0.243263	0.038277
528	C	0.750671	0.225372	0.038244
529	C	0.786869	0.243229	0.37023
530	C	0.803394	0.279218	0.369137
531	C	0.785052	0.296868	0.369192
532	N	0.732204	0.190776	0.039757
533	C	0.697722	0.172559	0.041215
534	C	0.67967	0.190234	0.041188
535	N	0.697478	0.22473	0.039743
536	H	0.685319	0.146571	0.042316
537	H	0.79843	0.322879	0.368267
538	H	0.829447	0.29316	0.368178
539	N	0.729792	0.29482	0.037075
540	N	0.807523	0.229193	0.369929
541	C	0.755795	0.476757	0.037033
542	C	0.791817	0.495892	0.038287
543	C	0.80971	0.032314	0.038253
544	C	0.791852	0.050654	0.370234
545	C	0.755864	0.031192	0.369134
546	C	0.738213	0.495199	0.369189
547	N	0.844305	0.048445	0.039774
548	C	0.862522	0.032178	0.04124
549	C	0.844846	0.496453	0.041213
550	N	0.810352	0.479765	0.03976
551	H	0.88851	0.045764	0.042346
552	H	0.857556	0.483166	0.042305
553	H	0.712204	0.482567	0.36826
554	H	0.741922	0.043303	0.368171
555	N	0.740262	0.441989	0.03708
556	N	0.805889	0.085347	0.369929
557	C	0.002767	0.284412	0.038248
558	C	0.984427	0.248213	0.37023
559	C	0.00389	0.231689	0.369137
560	N	0.986637	0.302877	0.039765
561	C	0.002903	0.33736	0.041226
562	H	0.989319	0.349763	0.04233
563	H	0.991778	0.205634	0.368174
564	N	0.949734	0.227558	0.369932
565	C	0.697789	0.381549	0.369919
566	N	0.664116	0.357201	0.369912
567	N	0.677882	0.313933	0.369912
568	C	0.711825	0.337292	0.369919
569	N	0.721149	0.370964	0.369915
570	C	0.737062	0.327754	0.369864
571	C	0.707325	0.416322	0.369867
572	H	0.688403	0.422351	0.369603
573	H	0.762013	0.346678	0.369607
574	C	0.845789	0.146916	0.370021
575	N	0.879066	0.172333	0.370035
576	C	0.888164	0.205888	0.370025
577	N	0.862748	0.213749	0.370035
578	C	0.829194	0.189293	0.370021
579	N	0.821331	0.156016	0.370032
580	C	0.8027	0.197046	0.370169
581	C	0.838034	0.112669	0.370169
582	C	0.922413	0.232382	0.370172
583	H	0.926506	0.256623	0.370309
584	H	0.858185	0.108576	0.370313
585	H	0.778459	0.176897	0.370306
586	C	0.749027	0.279287	0.370364
587	C	0.732141	0.243263	0.371611
588	C	0.750671	0.225372	0.371577
589	C	0.786869	0.243229	0.703564
590	C	0.803394	0.279218	0.702474
591	C	0.785052	0.296868	0.702525
592	N	0.732204	0.190776	0.373092
593	C	0.697722	0.172559	0.374548
594	C	0.67967	0.190234	0.374521
595	N	0.697478	0.22473	0.373075
596	H	0.685319	0.146571	0.375648
597	H	0.79843	0.322879	0.7016
598	H	0.829447	0.29316	0.701514
599	N	0.729792	0.29482	0.370409
600	N	0.807523	0.229193	0.703262
601	C	0.755795	0.476757	0.370367
602	C	0.791817	0.495892	0.371622
603	C	0.80971	0.032314	0.371587
604	C	0.791852	0.050654	0.703567
605	C	0.755864	0.031192	0.70247
606	C	0.738213	0.495199	0.702522
607	N	0.844305	0.048445	0.373109
608	C	0.862522	0.032178	0.374572
609	C	0.844846	0.496453	0.374545
610	N	0.810352	0.479765	0.373095
611	H	0.88851	0.045764	0.375679
612	H	0.857556	0.483166	0.375638
613	H	0.712204	0.482567	0.701593
614	H	0.741922	0.043303	0.701504
615	N	0.740262	0.441989	0.370415
616	N	0.805889	0.085347	0.703262
617	C	0.002767	0.284412	0.371581
618	C	0.984427	0.248213	0.703564
619	C	0.00389	0.231689	0.70247
620	N	0.986637	0.302877	0.373099
621	C	0.002903	0.33736	0.374559
622	H	0.989319	0.349763	0.375662
623	H	0.991778	0.205634	0.701507
624	N	0.949734	0.227558	0.703265
625	C	0.697789	0.381549	0.703252
626	N	0.664116	0.357201	0.703245
627	N	0.677882	0.313933	0.703245
628	C	0.711825	0.337292	0.703252
629	N	0.721149	0.370964	0.703248
630	C	0.737062	0.327754	0.703197
631	C	0.707325	0.416322	0.7032
632	H	0.688403	0.422351	0.702936
633	H	0.762013	0.346678	0.70294
634	C	0.845789	0.146916	0.703358
635	N	0.879066	0.172333	0.703368
636	C	0.888164	0.205888	0.703358
637	N	0.862748	0.213749	0.703368
638	C	0.829194	0.189293	0.703354
639	N	0.821331	0.156016	0.703365
640	C	0.8027	0.197046	0.703502
641	C	0.838034	0.112669	0.703502
642	C	0.922413	0.232382	0.703505
643	H	0.926506	0.256623	0.703642
644	H	0.858185	0.108576	0.703646
645	H	0.778459	0.176897	0.703642
646	C	0.749027	0.279287	0.703697
647	C	0.732141	0.243263	0.704945
648	C	0.750671	0.225372	0.70491
649	C	0.786869	0.243229	0.036896
650	C	0.803394	0.279218	0.035805
651	C	0.785052	0.296868	0.035857
652	N	0.732204	0.190776	0.706425
653	C	0.697722	0.172559	0.707881
654	C	0.67967	0.190234	0.707854
655	N	0.697478	0.22473	0.706411
656	H	0.685319	0.146571	0.708981
657	H	0.79843	0.322879	0.034934
658	H	0.829447	0.29316	0.034846
659	N	0.729792	0.29482	0.703742
660	N	0.807523	0.229193	0.036596
661	C	0.755795	0.476757	0.703701
662	C	0.791817	0.495892	0.704955
663	C	0.80971	0.032314	0.704921
664	C	0.791852	0.050654	0.036899
665	C	0.755864	0.031192	0.035802
666	C	0.738213	0.495199	0.035854
667	N	0.844305	0.048445	0.706442
668	C	0.862522	0.032178	0.707909
669	C	0.844846	0.496453	0.707881
670	N	0.810352	0.479765	0.706428
671	H	0.88851	0.045764	0.709012
672	H	0.857556	0.483166	0.708971
673	H	0.712204	0.482567	0.034927
674	H	0.741922	0.043303	0.034837
675	N	0.740262	0.441989	0.703749
676	N	0.805889	0.085347	0.036596
677	C	0.002767	0.284412	0.704914
678	C	0.984427	0.248213	0.036898
679	C	0.00389	0.231689	0.035803
680	N	0.986637	0.302877	0.706432
681	C	0.002903	0.33736	0.707895
682	H	0.989319	0.349763	0.708999
683	H	0.991778	0.205634	0.034842
684	N	0.949734	0.227558	0.036597
685	C	0.697789	0.881549	0.036585
686	N	0.664116	0.8572	0.036578
687	N	0.67788	0.813931	0.036577
688	C	0.711826	0.837293	0.036584
689	N	0.721151	0.870965	0.03658
690	C	0.737062	0.827755	0.03653
691	C	0.707324	0.916323	0.036532
692	H	0.688401	0.92235	0.036269
693	H	0.762015	0.846679	0.036272
694	C	0.845788	0.646917	0.036689
695	N	0.879064	0.672331	0.036701
696	C	0.888165	0.705887	0.036691
697	N	0.862749	0.713748	0.0367
698	C	0.829194	0.689294	0.036689
699	N	0.821332	0.656016	0.036699
700	C	0.802699	0.697045	0.036834
701	C	0.838035	0.612668	0.036836
702	C	0.922412	0.732382	0.036837
703	H	0.926505	0.756624	0.036977
704	H	0.858184	0.608577	0.036979
705	H	0.778457	0.676896	0.036974
706	C	0.749026	0.779285	0.037029
707	C	0.73214	0.743264	0.038277
708	C	0.75067	0.725371	0.038244
709	C	0.786868	0.743231	0.37023
710	C	0.803392	0.779216	0.369137
711	C	0.785053	0.796869	0.369192
712	N	0.732205	0.690776	0.039757
713	C	0.69772	0.672558	0.041215
714	C	0.679671	0.690234	0.041188
715	N	0.697479	0.72473	0.039743
716	H	0.685318	0.64657	0.042316
717	H	0.798428	0.822877	0.368267
718	H	0.829448	0.79316	0.368178
719	N	0.729794	0.794821	0.037075
720	N	0.807524	0.729192	0.369929
721	C	0.755795	0.976755	0.037033
722	C	0.791819	0.995893	0.038287
723	C	0.809708	0.532314	0.038253
724	C	0.79185	0.550654	0.370234
725	C	0.755864	0.53119	0.369134
726	C	0.738211	0.995198	0.369189
727	N	0.844306	0.548446	0.039774
728	C	0.862522	0.532179	0.04124
729	C	0.844846	0.996451	0.041213
730	N	0.810351	0.979766	0.03976
731	H	0.888509	0.545763	0.042346
732	H	0.857554	0.983164	0.042305
733	H	0.712202	0.982566	0.36826
734	H	0.741921	0.543303	0.368171
735	N	0.740261	0.941989	0.03708
736	N	0.805889	0.585346	0.369929
737	C	0.002767	0.78441	0.038248
738	C	0.984426	0.748213	0.37023
739	C	0.003889	0.731689	0.369137
740	N	0.986637	0.802876	0.039765
741	C	0.002904	0.837359	0.041226
742	H	0.989317	0.849762	0.04233
743	H	0.991778	0.705635	0.368174
744	N	0.949734	0.727557	0.369932
745	C	0.697789	0.881549	0.369919
746	N	0.664116	0.8572	0.369912
747	N	0.67788	0.813931	0.369912
748	C	0.711826	0.837293	0.369919
749	N	0.721151	0.870965	0.369915
750	C	0.737062	0.827755	0.369864
751	C	0.707324	0.916323	0.369867
752	H	0.688401	0.92235	0.369603
753	H	0.762015	0.846679	0.369607
754	C	0.845788	0.646917	0.370021
755	N	0.879064	0.672331	0.370035
756	C	0.888165	0.705887	0.370025
757	N	0.862749	0.713748	0.370035
758	C	0.829194	0.689294	0.370021
759	N	0.821332	0.656016	0.370032
760	C	0.802699	0.697045	0.370169
761	C	0.838035	0.612668	0.370169
762	C	0.922412	0.732382	0.370172
763	H	0.926505	0.756624	0.370309
764	H	0.858184	0.608577	0.370313
765	H	0.778457	0.676896	0.370306
766	C	0.749026	0.779285	0.370364
767	C	0.73214	0.743264	0.371611
768	C	0.75067	0.725371	0.371577
769	C	0.786868	0.743231	0.703564
770	C	0.803392	0.779216	0.702474
771	C	0.785053	0.796869	0.702525
772	N	0.732205	0.690776	0.373092
773	C	0.69772	0.672558	0.374548
774	C	0.679671	0.690234	0.374521
775	N	0.697479	0.72473	0.373075
776	H	0.685318	0.64657	0.375648
777	H	0.798428	0.822877	0.7016
778	H	0.829448	0.79316	0.701514
779	N	0.729794	0.794821	0.370409
780	N	0.807524	0.729192	0.703262
781	C	0.755795	0.976755	0.370367
782	C	0.791819	0.995893	0.371622
783	C	0.809708	0.532314	0.371587
784	C	0.79185	0.550654	0.703567
785	C	0.755864	0.53119	0.70247
786	C	0.738211	0.995198	0.702522
787	N	0.844306	0.548446	0.373109
788	C	0.862522	0.532179	0.374572
789	C	0.844846	0.996451	0.374545
790	N	0.810351	0.979766	0.373095
791	H	0.888509	0.545763	0.375679
792	H	0.857554	0.983164	0.375638
793	H	0.712202	0.982566	0.701593
794	H	0.741921	0.543303	0.701504
795	N	0.740261	0.941989	0.370415
796	N	0.805889	0.585346	0.703262
797	C	0.002767	0.78441	0.371581
798	C	0.984426	0.748213	0.703564
799	C	0.003889	0.731689	0.70247
800	N	0.986637	0.802876	0.373099
801	C	0.002904	0.837359	0.374559
802	H	0.989317	0.849762	0.375662
803	H	0.991778	0.705635	0.701507
804	N	0.949734	0.727557	0.703265
805	C	0.697789	0.881549	0.703252
806	N	0.664116	0.8572	0.703245
807	N	0.67788	0.813931	0.703245
808	C	0.711826	0.837293	0.703252
809	N	0.721151	0.870965	0.703248
810	C	0.737062	0.827755	0.703197
811	C	0.707324	0.916323	0.7032
812	H	0.688401	0.92235	0.702936
813	H	0.762015	0.846679	0.70294
814	C	0.845788	0.646917	0.703358
815	N	0.879064	0.672331	0.703368
816	C	0.888165	0.705887	0.703358
817	N	0.862749	0.713748	0.703368
818	C	0.829194	0.689294	0.703354
819	N	0.821332	0.656016	0.703365
820	C	0.802699	0.697045	0.703502
821	C	0.838035	0.612668	0.703502
822	C	0.922412	0.732382	0.703505
823	H	0.926505	0.756624	0.703642
824	H	0.858184	0.608577	0.703646
825	H	0.778457	0.676896	0.703642
826	C	0.749026	0.779285	0.703697
827	C	0.73214	0.743264	0.704945
828	C	0.75067	0.725371	0.70491
829	C	0.786868	0.743231	0.036896
830	C	0.803392	0.779216	0.035805
831	C	0.785053	0.796869	0.035857
832	N	0.732205	0.690776	0.706425
833	C	0.69772	0.672558	0.707881
834	C	0.679671	0.690234	0.707854
835	N	0.697479	0.72473	0.706411
836	H	0.685318	0.64657	0.708981
837	H	0.798428	0.822877	0.034934
838	H	0.829448	0.79316	0.034846
839	N	0.729794	0.794821	0.703742
840	N	0.807524	0.729192	0.036596
841	C	0.755795	0.976755	0.703701
842	C	0.791819	0.995893	0.704955
843	C	0.809708	0.532314	0.704921
844	C	0.79185	0.550654	0.036899
845	C	0.755864	0.53119	0.035802
846	C	0.738211	0.995198	0.035854
847	N	0.844306	0.548446	0.706442
848	C	0.862522	0.532179	0.707909
849	C	0.844846	0.996451	0.707881
850	N	0.810351	0.979766	0.706428
851	H	0.888509	0.545763	0.709012
852	H	0.857554	0.983164	0.708971
853	H	0.712202	0.982566	0.034927
854	H	0.741921	0.543303	0.034837
855	N	0.740261	0.941989	0.703749
856	N	0.805889	0.585346	0.036596
857	C	0.002767	0.78441	0.704914
858	C	0.984426	0.748213	0.036898
859	C	0.003889	0.731689	0.035803
860	N	0.986637	0.802876	0.706432
861	C	0.002904	0.837359	0.707895
862	H	0.989317	0.849762	0.708999
863	H	0.991778	0.705635	0.034842
864	N	0.949734	0.727557	0.036597
