data_C708H456N72O48_2018-02-15_10:43:42
#******************************************
#
# CIF file created by Zeo++
# Zeo++ is an open source package to
# analyze microporous materials
#
#*******************************************

_cell_length_a		43.5902   
_cell_length_b		43.385   
_cell_length_c		30.0958   
_cell_angle_alpha		90   
_cell_angle_beta		90   
_cell_angle_gamma		90.0023   

_symmetry_space_group_name_H-M		'P1'
_symmetry_Int_Tables_number		1
_symmetry_cell_setting		Monoclinic

loop_
_symmetry_equiv_pos_as_xyz
'+x,+y,+z'

loop_
_atom_site_label
_atom_site_type_symbol
_atom_site_fract_x
_atom_site_fract_y
_atom_site_fract_z
1	C	0.028516	0.496183	0.035802
2	C	0.028066	0.49521	0.082931
3	C	0.470309	0.496552	0.083227
4	C	0.469762	0.997626	0.036093
5	C	0.440754	0.998205	0.014498
6	C	0.412887	0.997564	0.038448
7	C	0.414289	0.996299	0.085349
8	C	0.442571	0.496024	0.107396
9	C	0.055835	0.493701	0.106858
10	C	0.084021	0.49324	0.084595
11	C	0.085461	0.494468	0.037621
12	C	0.057453	0.995812	0.013976
13	C	0.498215	0.468618	0.314371
14	C	0.497025	0.470156	0.267291
15	C	0.499515	0.028003	0.269772
16	C	0.499836	0.027597	0.316956
17	C	0.501112	0.056228	0.246685
18	C	0.502937	0.084083	0.269879
19	C	0.502577	0.084638	0.316888
20	C	0.001276	0.056264	0.006476
21	C	0.998182	0.439041	0.001388
22	C	0.497224	0.411553	0.309577
23	C	0.495302	0.41407	0.262758
24	C	0.495315	0.442886	0.241952
25	H	0.493971	0.394913	0.242993
26	H	0.494204	0.443785	0.207984
27	H	0.501181	0.056717	0.212654
28	H	0.504491	0.104021	0.251801
29	H	0.001362	0.056393	0.040511
30	H	0.999162	0.437603	0.035333
31	H	0.440002	0.998914	0.313828
32	H	0.394709	0.995266	0.10409
33	H	0.442755	0.494978	0.141393
34	H	0.058004	0.9967	0.313305
35	H	0.055753	0.492906	0.140873
36	H	0.103531	0.492115	0.103446
37	C	0.999089	0.997548	0.009156
38	C	0.497616	0.999634	0.242777
39	H	0.017456	0.999171	0.220491
40	H	0.476806	0.501003	0.22253
41	C	0.999237	0.495556	0.108833
42	H	0.999734	0.015677	0.130747
43	H	0.998822	0.474803	0.129487
44	C	0.004273	0.112355	0.006383
45	C	0.113365	0.994823	0.014996
46	C	0.997645	0.383008	0.997231
47	H	0.991559	0.381053	0.028942
48	H	0.016805	0.114161	0.033834
49	H	0.113934	0.993357	0.31538
50	C	0.385005	0.997119	0.016213
51	H	0.38349	0.987286	0.3198
52	C	0.005499	0.32889	0.314047
53	C	0.006863	0.311227	0.275007
54	C	0.004958	0.278785	0.276273
55	C	0.001075	0.263773	0.318006
56	C	0.004013	0.281372	0.024447
57	C	0.005078	0.313887	0.022213
58	H	0.005531	0.326636	0.050795
59	C	0.996446	0.231179	0.32197
60	C	0.478639	0.214587	0.290802
61	C	0.476211	0.182476	0.29325
62	C	0.99089	0.166223	0.994271
63	C	0.005737	0.182697	0.028529
64	C	0.007554	0.215246	0.026722
65	H	0.467486	0.225525	0.265475
66	H	0.464955	0.170997	0.268339
67	H	0.015949	0.171003	0.054062
68	H	0.508652	0.322031	0.24481
69	C	0.021571	0.233283	0.063591
70	C	0.005803	0.265306	0.068218
71	H	0.045967	0.236441	0.056467
72	H	0.019533	0.221004	0.09519
73	H	0.018745	0.278995	0.092304
74	H	0.482525	0.262317	0.081042
75	N	0.008844	0.261747	0.236423
76	O	0.989226	0.268757	0.207481
77	O	0.03513	0.265587	0.220158
78	N	0.992396	0.136256	0.98828
79	N	0.50418	0.358878	0.307924
80	C	0.168205	0.999844	0.028865
81	C	0.181857	0.001327	0.319866
82	C	0.21403	0.004925	0.314995
83	C	0.233101	0.006477	0.020177
84	C	0.218735	0.006465	0.062843
85	C	0.186775	0.00278	0.06669
86	H	0.17683	0.002779	0.097578
87	C	0.266056	0.010075	0.018934
88	C	0.284687	0.495217	0.32011
89	C	0.316885	0.495503	0.323195
90	C	0.331504	0.010504	0.025622
91	C	0.313399	0.025064	0.058092
92	C	0.281103	0.024727	0.05537
93	H	0.275134	0.481789	0.29595
94	H	0.32941	0.483188	0.30062
95	H	0.323801	0.034644	0.085349
96	H	0.168249	0.500682	0.292198
97	C	0.262537	0.036138	0.093476
98	C	0.237113	0.01231	0.103794
99	H	0.252158	0.058216	0.084427
100	H	0.27635	0.039753	0.123371
101	H	0.222992	0.021187	0.13099
102	H	0.247433	0.490628	0.114782
103	N	0.226571	0.009421	0.27204
104	O	0.221176	0.986991	0.246754
105	O	0.216518	0.033562	0.254113
106	N	0.361036	0.008293	0.034958
107	N	0.138506	0.4979	0.036641
108	C	0.028516	0.496183	0.369134
109	C	0.028066	0.49521	0.416264
110	C	0.470309	0.496552	0.416559
111	C	0.469762	0.997626	0.369427
112	C	0.440754	0.998205	0.347832
113	C	0.412887	0.997564	0.371782
114	C	0.414289	0.996299	0.418683
115	C	0.442571	0.496024	0.440729
116	C	0.055835	0.493701	0.440191
117	C	0.084021	0.49324	0.417928
118	C	0.085461	0.494468	0.370955
119	C	0.057453	0.995812	0.347311
120	C	0.498215	0.468618	0.647704
121	C	0.497025	0.470156	0.600625
122	C	0.499515	0.028003	0.603107
123	C	0.499836	0.027597	0.65029
124	C	0.501112	0.056228	0.580017
125	C	0.502937	0.084083	0.603213
126	C	0.502577	0.084638	0.65022
127	C	0.001276	0.056264	0.339808
128	C	0.998182	0.439041	0.334721
129	C	0.497224	0.411553	0.64291
130	C	0.495302	0.41407	0.596093
131	C	0.495315	0.442886	0.575286
132	H	0.493971	0.394913	0.576326
133	H	0.494204	0.443785	0.541318
134	H	0.501181	0.056717	0.545986
135	H	0.504491	0.104021	0.585134
136	H	0.001362	0.056393	0.373846
137	H	0.999162	0.437603	0.368666
138	H	0.440002	0.998914	0.647163
139	H	0.394709	0.995266	0.437423
140	H	0.442755	0.494978	0.474727
141	H	0.058004	0.9967	0.646638
142	H	0.055753	0.492906	0.474209
143	H	0.103531	0.492115	0.436778
144	C	0.999089	0.997548	0.342489
145	C	0.497616	0.999634	0.57611
146	H	0.017456	0.999171	0.553824
147	H	0.476806	0.501003	0.555864
148	C	0.999237	0.495556	0.442168
149	H	0.999734	0.015677	0.464081
150	H	0.998822	0.474803	0.462822
151	C	0.004273	0.112355	0.339718
152	C	0.113365	0.994823	0.348331
153	C	0.997645	0.383008	0.330564
154	H	0.991559	0.381053	0.362276
155	H	0.016805	0.114161	0.367167
156	H	0.113934	0.993357	0.648715
157	C	0.385005	0.997119	0.349547
158	H	0.38349	0.987286	0.653134
159	C	0.005499	0.32889	0.647382
160	C	0.006863	0.311227	0.60834
161	C	0.004958	0.278785	0.609606
162	C	0.001075	0.263773	0.65134
163	C	0.004013	0.281372	0.357781
164	C	0.005078	0.313887	0.355548
165	H	0.005531	0.326636	0.38413
166	C	0.996446	0.231179	0.655304
167	C	0.478639	0.214587	0.624136
168	C	0.476211	0.182476	0.626585
169	C	0.99089	0.166223	0.327603
170	C	0.005737	0.182697	0.361864
171	C	0.007554	0.215246	0.360057
172	H	0.467486	0.225525	0.598807
173	H	0.464955	0.170997	0.601672
174	H	0.015949	0.171003	0.387396
175	H	0.508652	0.322031	0.578143
176	C	0.021571	0.233283	0.396926
177	C	0.005803	0.265306	0.401551
178	H	0.045967	0.236441	0.389802
179	H	0.019533	0.221004	0.428525
180	H	0.018745	0.278995	0.425637
181	H	0.482525	0.262317	0.414376
182	N	0.008844	0.261747	0.569757
183	O	0.989226	0.268757	0.540816
184	O	0.03513	0.265587	0.553492
185	N	0.992396	0.136256	0.321613
186	N	0.50418	0.358878	0.641258
187	C	0.168205	0.999844	0.3622
188	C	0.181857	0.001327	0.6532
189	C	0.21403	0.004925	0.648329
190	C	0.233101	0.006477	0.353511
191	C	0.218735	0.006465	0.396178
192	C	0.186775	0.00278	0.400022
193	H	0.17683	0.002779	0.43091
194	C	0.266056	0.010075	0.352268
195	C	0.284687	0.495217	0.653443
196	C	0.316885	0.495503	0.65653
197	C	0.331504	0.010504	0.358957
198	C	0.313399	0.025064	0.391426
199	C	0.281103	0.024727	0.388705
200	H	0.275134	0.481789	0.629283
201	H	0.32941	0.483188	0.633955
202	H	0.323801	0.034644	0.418683
203	H	0.168249	0.500682	0.625532
204	C	0.262537	0.036138	0.42681
205	C	0.237113	0.01231	0.437127
206	H	0.252158	0.058216	0.417759
207	H	0.27635	0.039753	0.456705
208	H	0.222992	0.021187	0.464324
209	H	0.247433	0.490628	0.448115
210	N	0.226571	0.009421	0.605373
211	O	0.221176	0.986991	0.580087
212	O	0.216518	0.033562	0.587447
213	N	0.361036	0.008293	0.36829
214	N	0.138506	0.4979	0.369975
215	C	0.028516	0.496183	0.70247
216	C	0.028066	0.49521	0.749599
217	C	0.470309	0.496552	0.749895
218	C	0.469762	0.997626	0.702759
219	C	0.440754	0.998205	0.681164
220	C	0.412887	0.997564	0.705114
221	C	0.414289	0.996299	0.752018
222	C	0.442571	0.496024	0.774064
223	C	0.055835	0.493701	0.773526
224	C	0.084021	0.49324	0.751264
225	C	0.085461	0.494468	0.704287
226	C	0.057453	0.995812	0.680643
227	C	0.498215	0.468618	0.98104
228	C	0.497025	0.470156	0.933957
229	C	0.499515	0.028003	0.936439
230	C	0.499836	0.027597	0.983622
231	C	0.501112	0.056228	0.913353
232	C	0.502937	0.084083	0.936545
233	C	0.502577	0.084638	0.983555
234	C	0.001276	0.056264	0.673143
235	C	0.998182	0.439041	0.668056
236	C	0.497224	0.411553	0.976245
237	C	0.495302	0.41407	0.929425
238	C	0.495315	0.442886	0.908621
239	H	0.493971	0.394913	0.909661
240	H	0.494204	0.443785	0.874653
241	H	0.501181	0.056717	0.879321
242	H	0.504491	0.104021	0.918466
243	H	0.001362	0.056393	0.707178
244	H	0.999162	0.437603	0.702001
245	H	0.440002	0.998914	0.980495
246	H	0.394709	0.995266	0.770758
247	H	0.442755	0.494978	0.808062
248	H	0.058004	0.9967	0.979973
249	H	0.055753	0.492906	0.807541
250	H	0.103531	0.492115	0.770113
251	C	0.999089	0.997548	0.675821
252	C	0.497616	0.999634	0.909445
253	H	0.017456	0.999171	0.88716
254	H	0.476806	0.501003	0.889196
255	C	0.999237	0.495556	0.7755
256	H	0.999734	0.015677	0.797416
257	H	0.998822	0.474803	0.796154
258	C	0.004273	0.112355	0.67305
259	C	0.113365	0.994823	0.681663
260	C	0.997645	0.383008	0.663899
261	H	0.991559	0.381053	0.695608
262	H	0.016805	0.114161	0.700503
263	H	0.113934	0.993357	0.982047
264	C	0.385005	0.997119	0.682879
265	H	0.38349	0.987286	0.986466
266	C	0.005499	0.32889	0.980714
267	C	0.006863	0.311227	0.941672
268	C	0.004958	0.278785	0.942941
269	C	0.001075	0.263773	0.984675
270	C	0.004013	0.281372	0.691112
271	C	0.005078	0.313887	0.68888
272	H	0.005531	0.326636	0.717462
273	C	0.996446	0.231179	0.988635
274	C	0.478639	0.214587	0.957468
275	C	0.476211	0.182476	0.959917
276	C	0.99089	0.166223	0.660936
277	C	0.005737	0.182697	0.695196
278	C	0.007554	0.215246	0.693389
279	H	0.467486	0.225525	0.932143
280	H	0.464955	0.170997	0.935007
281	H	0.015949	0.171003	0.720728
282	H	0.508652	0.322031	0.911475
283	C	0.021571	0.233283	0.730257
284	C	0.005803	0.265306	0.734886
285	H	0.045967	0.236441	0.723134
286	H	0.019533	0.221004	0.761857
287	H	0.018745	0.278995	0.758969
288	H	0.482525	0.262317	0.747708
289	N	0.008844	0.261747	0.903089
290	O	0.989226	0.268757	0.874148
291	O	0.03513	0.265587	0.886824
292	N	0.992396	0.136256	0.654948
293	N	0.50418	0.358878	0.97459
294	C	0.168205	0.999844	0.695532
295	C	0.181857	0.001327	0.986532
296	C	0.21403	0.004925	0.981661
297	C	0.233101	0.006477	0.686843
298	C	0.218735	0.006465	0.72951
299	C	0.186775	0.00278	0.733358
300	H	0.17683	0.002779	0.764246
301	C	0.266056	0.010075	0.6856
302	C	0.284687	0.495217	0.986778
303	C	0.316885	0.495503	0.989862
304	C	0.331504	0.010504	0.692289
305	C	0.313399	0.025064	0.724758
306	C	0.281103	0.024727	0.722037
307	H	0.275134	0.481789	0.962619
308	H	0.32941	0.483188	0.967287
309	H	0.323801	0.034644	0.752015
310	H	0.168249	0.500682	0.958864
311	C	0.262537	0.036138	0.760142
312	C	0.237113	0.01231	0.770462
313	H	0.252158	0.058216	0.751094
314	H	0.27635	0.039753	0.790037
315	H	0.222992	0.021187	0.797656
316	H	0.247433	0.490628	0.781451
317	N	0.226571	0.009421	0.938708
318	O	0.221176	0.986991	0.913422
319	O	0.216518	0.033562	0.920779
320	N	0.361036	0.008293	0.701626
321	N	0.138506	0.4979	0.70331
322	C	0.028516	0.996183	0.035802
323	C	0.028066	0.995208	0.082931
324	C	0.470308	0.996552	0.083227
325	C	0.469763	0.497626	0.036093
326	C	0.440754	0.498205	0.014499
327	C	0.412888	0.497564	0.038448
328	C	0.414287	0.496298	0.085349
329	C	0.44257	0.996024	0.107396
330	C	0.055835	0.993701	0.106858
331	C	0.084021	0.993238	0.084595
332	C	0.085461	0.994468	0.037621
333	C	0.057453	0.495814	0.013976
334	C	0.498215	0.968619	0.314371
335	C	0.497024	0.970156	0.267291
336	C	0.499516	0.528003	0.269772
337	C	0.499835	0.527597	0.316956
338	C	0.501112	0.556227	0.246685
339	C	0.502937	0.584082	0.269879
340	C	0.502579	0.584638	0.316888
341	C	0.001276	0.556264	0.006476
342	C	0.998181	0.939041	0.001388
343	C	0.497226	0.911553	0.309577
344	C	0.495304	0.91407	0.262758
345	C	0.495314	0.942886	0.241952
346	H	0.49397	0.894913	0.242993
347	H	0.494204	0.943783	0.207984
348	H	0.501181	0.556718	0.212654
349	H	0.504491	0.60402	0.251801
350	H	0.001362	0.556393	0.040511
351	H	0.999162	0.937603	0.035333
352	H	0.440002	0.498915	0.313828
353	H	0.394709	0.495266	0.10409
354	H	0.442754	0.994978	0.141393
355	H	0.058004	0.496699	0.313305
356	H	0.055753	0.992906	0.140873
357	H	0.103531	0.992115	0.103446
358	C	0.999089	0.497548	0.009156
359	C	0.497616	0.499634	0.242777
360	H	0.017456	0.49917	0.220491
361	H	0.476807	0.001002	0.22253
362	C	0.999237	0.995556	0.108833
363	H	0.999734	0.515676	0.130747
364	H	0.998822	0.974803	0.129487
365	C	0.004273	0.612355	0.006383
366	C	0.113365	0.494823	0.014996
367	C	0.997645	0.883008	0.997231
368	H	0.991558	0.881054	0.028942
369	H	0.016805	0.614162	0.033834
370	H	0.113934	0.49336	0.31538
371	C	0.385005	0.497119	0.016213
372	H	0.383491	0.487286	0.3198
373	C	0.005499	0.82889	0.314047
374	C	0.006863	0.811228	0.275007
375	C	0.004958	0.778786	0.276273
376	C	0.001075	0.763773	0.318006
377	C	0.004013	0.781372	0.024447
378	C	0.005078	0.813885	0.022213
379	H	0.005531	0.826636	0.050795
380	C	0.996446	0.731179	0.32197
381	C	0.478638	0.714586	0.290802
382	C	0.476212	0.682476	0.29325
383	C	0.990891	0.666224	0.994271
384	C	0.005737	0.682697	0.028529
385	C	0.007554	0.715245	0.026722
386	H	0.467485	0.725525	0.265475
387	H	0.464957	0.670997	0.268339
388	H	0.015949	0.671004	0.054062
389	H	0.508652	0.822031	0.24481
390	C	0.021571	0.733284	0.063591
391	C	0.005803	0.765306	0.068218
392	H	0.045967	0.736441	0.056467
393	H	0.019533	0.721003	0.09519
394	H	0.018745	0.778995	0.092304
395	H	0.482524	0.762317	0.081042
396	N	0.008844	0.761747	0.236423
397	O	0.989228	0.768757	0.207481
398	O	0.03513	0.765585	0.220158
399	N	0.992395	0.636257	0.98828
400	N	0.50418	0.858878	0.307924
401	C	0.168205	0.499843	0.028865
402	C	0.181857	0.501328	0.319866
403	C	0.21403	0.504924	0.314995
404	C	0.2331	0.506477	0.020177
405	C	0.218735	0.506466	0.062843
406	C	0.186775	0.50278	0.06669
407	H	0.17683	0.50278	0.097578
408	C	0.266055	0.510075	0.018934
409	C	0.284686	0.995218	0.32011
410	C	0.316884	0.995501	0.323195
411	C	0.331503	0.510504	0.025622
412	C	0.313399	0.525064	0.058092
413	C	0.281102	0.524728	0.05537
414	H	0.275133	0.981789	0.29595
415	H	0.329409	0.983188	0.30062
416	H	0.323803	0.534643	0.085349
417	H	0.168249	0.000683	0.292198
418	C	0.262537	0.536137	0.093476
419	C	0.237113	0.512311	0.103794
420	H	0.252159	0.558216	0.084427
421	H	0.27635	0.539754	0.123371
422	H	0.222992	0.521187	0.13099
423	H	0.247432	0.990628	0.114782
424	N	0.226571	0.50942	0.27204
425	O	0.221176	0.486991	0.246754
426	O	0.216518	0.533562	0.254113
427	N	0.361037	0.508293	0.034958
428	N	0.138506	0.997901	0.036641
429	C	0.028516	0.996183	0.369134
430	C	0.028066	0.995208	0.416264
431	C	0.470308	0.996552	0.416559
432	C	0.469763	0.497626	0.369427
433	C	0.440754	0.498205	0.347832
434	C	0.412888	0.497564	0.371782
435	C	0.414287	0.496298	0.418683
436	C	0.44257	0.996024	0.440729
437	C	0.055835	0.993701	0.440191
438	C	0.084021	0.993238	0.417928
439	C	0.085461	0.994468	0.370955
440	C	0.057453	0.495814	0.347311
441	C	0.498215	0.968619	0.647704
442	C	0.497024	0.970156	0.600625
443	C	0.499516	0.528003	0.603107
444	C	0.499835	0.527597	0.65029
445	C	0.501112	0.556227	0.580017
446	C	0.502937	0.584082	0.603213
447	C	0.502579	0.584638	0.65022
448	C	0.001276	0.556264	0.339808
449	C	0.998181	0.939041	0.334721
450	C	0.497226	0.911553	0.64291
451	C	0.495304	0.91407	0.596093
452	C	0.495314	0.942886	0.575286
453	H	0.49397	0.894913	0.576326
454	H	0.494204	0.943783	0.541318
455	H	0.501181	0.556718	0.545986
456	H	0.504491	0.60402	0.585134
457	H	0.001362	0.556393	0.373846
458	H	0.999162	0.937603	0.368666
459	H	0.440002	0.498915	0.647163
460	H	0.394709	0.495266	0.437423
461	H	0.442754	0.994978	0.474727
462	H	0.058004	0.496699	0.646638
463	H	0.055753	0.992906	0.474209
464	H	0.103531	0.992115	0.436778
465	C	0.999089	0.497548	0.342489
466	C	0.497616	0.499634	0.57611
467	H	0.017456	0.49917	0.553824
468	H	0.476807	0.001002	0.555864
469	C	0.999237	0.995556	0.442168
470	H	0.999734	0.515676	0.464081
471	H	0.998822	0.974803	0.462822
472	C	0.004273	0.612355	0.339718
473	C	0.113365	0.494823	0.348331
474	C	0.997645	0.883008	0.330564
475	H	0.991558	0.881054	0.362276
476	H	0.016805	0.614162	0.367167
477	H	0.113934	0.49336	0.648715
478	C	0.385005	0.497119	0.349547
479	H	0.383491	0.487286	0.653134
480	C	0.005499	0.82889	0.647382
481	C	0.006863	0.811228	0.60834
482	C	0.004958	0.778786	0.609606
483	C	0.001075	0.763773	0.65134
484	C	0.004013	0.781372	0.357781
485	C	0.005078	0.813885	0.355548
486	H	0.005531	0.826636	0.38413
487	C	0.996446	0.731179	0.655304
488	C	0.478638	0.714586	0.624136
489	C	0.476212	0.682476	0.626585
490	C	0.990891	0.666224	0.327603
491	C	0.005737	0.682697	0.361864
492	C	0.007554	0.715245	0.360057
493	H	0.467485	0.725525	0.598807
494	H	0.464957	0.670997	0.601672
495	H	0.015949	0.671004	0.387396
496	H	0.508652	0.822031	0.578143
497	C	0.021571	0.733284	0.396926
498	C	0.005803	0.765306	0.401551
499	H	0.045967	0.736441	0.389802
500	H	0.019533	0.721003	0.428525
501	H	0.018745	0.778995	0.425637
502	H	0.482524	0.762317	0.414376
503	N	0.008844	0.761747	0.569757
504	O	0.989228	0.768757	0.540816
505	O	0.03513	0.765585	0.553492
506	N	0.992395	0.636257	0.321613
507	N	0.50418	0.858878	0.641258
508	C	0.168205	0.499843	0.3622
509	C	0.181857	0.501328	0.6532
510	C	0.21403	0.504924	0.648329
511	C	0.2331	0.506477	0.353511
512	C	0.218735	0.506466	0.396178
513	C	0.186775	0.50278	0.400022
514	H	0.17683	0.50278	0.43091
515	C	0.266055	0.510075	0.352268
516	C	0.284686	0.995218	0.653443
517	C	0.316884	0.995501	0.65653
518	C	0.331503	0.510504	0.358957
519	C	0.313399	0.525064	0.391426
520	C	0.281102	0.524728	0.388705
521	H	0.275133	0.981789	0.629283
522	H	0.329409	0.983188	0.633955
523	H	0.323803	0.534643	0.418683
524	H	0.168249	0.000683	0.625532
525	C	0.262537	0.536137	0.42681
526	C	0.237113	0.512311	0.437127
527	H	0.252159	0.558216	0.417759
528	H	0.27635	0.539754	0.456705
529	H	0.222992	0.521187	0.464324
530	H	0.247432	0.990628	0.448115
531	N	0.226571	0.50942	0.605373
532	O	0.221176	0.486991	0.580087
533	O	0.216518	0.533562	0.587447
534	N	0.361037	0.508293	0.36829
535	N	0.138506	0.997901	0.369975
536	C	0.028516	0.996183	0.70247
537	C	0.028066	0.995208	0.749599
538	C	0.470308	0.996552	0.749895
539	C	0.469763	0.497626	0.702759
540	C	0.440754	0.498205	0.681164
541	C	0.412888	0.497564	0.705114
542	C	0.414287	0.496298	0.752018
543	C	0.44257	0.996024	0.774064
544	C	0.055835	0.993701	0.773526
545	C	0.084021	0.993238	0.751264
546	C	0.085461	0.994468	0.704287
547	C	0.057453	0.495814	0.680643
548	C	0.498215	0.968619	0.98104
549	C	0.497024	0.970156	0.933957
550	C	0.499516	0.528003	0.936439
551	C	0.499835	0.527597	0.983622
552	C	0.501112	0.556227	0.913353
553	C	0.502937	0.584082	0.936545
554	C	0.502579	0.584638	0.983555
555	C	0.001276	0.556264	0.673143
556	C	0.998181	0.939041	0.668056
557	C	0.497226	0.911553	0.976245
558	C	0.495304	0.91407	0.929425
559	C	0.495314	0.942886	0.908621
560	H	0.49397	0.894913	0.909661
561	H	0.494204	0.943783	0.874653
562	H	0.501181	0.556718	0.879321
563	H	0.504491	0.60402	0.918466
564	H	0.001362	0.556393	0.707178
565	H	0.999162	0.937603	0.702001
566	H	0.440002	0.498915	0.980495
567	H	0.394709	0.495266	0.770758
568	H	0.442754	0.994978	0.808062
569	H	0.058004	0.496699	0.979973
570	H	0.055753	0.992906	0.807541
571	H	0.103531	0.992115	0.770113
572	C	0.999089	0.497548	0.675821
573	C	0.497616	0.499634	0.909445
574	H	0.017456	0.49917	0.88716
575	H	0.476807	0.001002	0.889196
576	C	0.999237	0.995556	0.7755
577	H	0.999734	0.515676	0.797416
578	H	0.998822	0.974803	0.796154
579	C	0.004273	0.612355	0.67305
580	C	0.113365	0.494823	0.681663
581	C	0.997645	0.883008	0.663899
582	H	0.991558	0.881054	0.695608
583	H	0.016805	0.614162	0.700503
584	H	0.113934	0.49336	0.982047
585	C	0.385005	0.497119	0.682879
586	H	0.383491	0.487286	0.986466
587	C	0.005499	0.82889	0.980714
588	C	0.006863	0.811228	0.941672
589	C	0.004958	0.778786	0.942941
590	C	0.001075	0.763773	0.984675
591	C	0.004013	0.781372	0.691112
592	C	0.005078	0.813885	0.68888
593	H	0.005531	0.826636	0.717462
594	C	0.996446	0.731179	0.988635
595	C	0.478638	0.714586	0.957468
596	C	0.476212	0.682476	0.959917
597	C	0.990891	0.666224	0.660936
598	C	0.005737	0.682697	0.695196
599	C	0.007554	0.715245	0.693389
600	H	0.467485	0.725525	0.932143
601	H	0.464957	0.670997	0.935007
602	H	0.015949	0.671004	0.720728
603	H	0.508652	0.822031	0.911475
604	C	0.021571	0.733284	0.730257
605	C	0.005803	0.765306	0.734886
606	H	0.045967	0.736441	0.723134
607	H	0.019533	0.721003	0.761857
608	H	0.018745	0.778995	0.758969
609	H	0.482524	0.762317	0.747708
610	N	0.008844	0.761747	0.903089
611	O	0.989228	0.768757	0.874148
612	O	0.03513	0.765585	0.886824
613	N	0.992395	0.636257	0.654948
614	N	0.50418	0.858878	0.97459
615	C	0.168205	0.499843	0.695532
616	C	0.181857	0.501328	0.986532
617	C	0.21403	0.504924	0.981661
618	C	0.2331	0.506477	0.686843
619	C	0.218735	0.506466	0.72951
620	C	0.186775	0.50278	0.733358
621	H	0.17683	0.50278	0.764246
622	C	0.266055	0.510075	0.6856
623	C	0.284686	0.995218	0.986778
624	C	0.316884	0.995501	0.989862
625	C	0.331503	0.510504	0.692289
626	C	0.313399	0.525064	0.724758
627	C	0.281102	0.524728	0.722037
628	H	0.275133	0.981789	0.962619
629	H	0.329409	0.983188	0.967287
630	H	0.323803	0.534643	0.752015
631	H	0.168249	0.000683	0.958864
632	C	0.262537	0.536137	0.760142
633	C	0.237113	0.512311	0.770462
634	H	0.252159	0.558216	0.751094
635	H	0.27635	0.539754	0.790037
636	H	0.222992	0.521187	0.797656
637	H	0.247432	0.990628	0.781451
638	N	0.226571	0.50942	0.938708
639	O	0.221176	0.486991	0.913422
640	O	0.216518	0.533562	0.920779
641	N	0.361037	0.508293	0.701626
642	N	0.138506	0.997901	0.70331
643	C	0.528517	0.496183	0.035802
644	C	0.528067	0.49521	0.082931
645	C	0.970309	0.496552	0.083227
646	C	0.969762	0.997626	0.036093
647	C	0.940753	0.998205	0.014498
648	C	0.912887	0.997564	0.038448
649	C	0.914289	0.996299	0.085349
650	C	0.942571	0.496024	0.107396
651	C	0.555835	0.493701	0.106858
652	C	0.58402	0.49324	0.084595
653	C	0.585461	0.494468	0.037621
654	C	0.557454	0.995812	0.013976
655	C	0.998215	0.468618	0.314371
656	C	0.997025	0.470156	0.267291
657	C	0.999515	0.028003	0.269772
658	C	0.999835	0.027597	0.316956
659	C	0.001112	0.056228	0.246685
660	C	0.002936	0.084083	0.269879
661	C	0.002578	0.084638	0.316888
662	C	0.501278	0.056264	0.006476
663	C	0.498182	0.439041	0.001388
664	C	0.997227	0.411553	0.309577
665	C	0.995302	0.41407	0.262758
666	C	0.995315	0.442886	0.241952
667	H	0.993971	0.394913	0.242993
668	H	0.994204	0.443785	0.207984
669	H	0.001181	0.056717	0.212654
670	H	0.004491	0.104021	0.251801
671	H	0.501363	0.056393	0.040511
672	H	0.499162	0.437603	0.035333
673	H	0.940002	0.998914	0.313828
674	H	0.894709	0.995266	0.10409
675	H	0.942754	0.494978	0.141393
676	H	0.558005	0.9967	0.313305
677	H	0.555752	0.492906	0.140873
678	H	0.603531	0.492115	0.103446
679	C	0.499088	0.997548	0.009156
680	C	0.997616	0.999634	0.242777
681	H	0.517456	0.999171	0.220491
682	H	0.976806	0.501003	0.22253
683	C	0.499237	0.495556	0.108833
684	H	0.499734	0.015677	0.130747
685	H	0.498821	0.474803	0.129487
686	C	0.504274	0.112355	0.006383
687	C	0.613366	0.994823	0.014996
688	C	0.497645	0.383008	0.997231
689	H	0.491559	0.381053	0.028942
690	H	0.516804	0.114161	0.033834
691	H	0.613934	0.993357	0.31538
692	C	0.885005	0.997119	0.016213
693	H	0.88349	0.987286	0.3198
694	C	0.5055	0.32889	0.314047
695	C	0.506862	0.311227	0.275007
696	C	0.504959	0.278785	0.276273
697	C	0.501075	0.263773	0.318006
698	C	0.504014	0.281372	0.024447
699	C	0.505078	0.313887	0.022213
700	H	0.50553	0.326636	0.050795
701	C	0.496446	0.231179	0.32197
702	C	0.978639	0.214587	0.290802
703	C	0.97621	0.182476	0.29325
704	C	0.49089	0.166223	0.994271
705	C	0.505738	0.182697	0.028529
706	C	0.507554	0.215246	0.026722
707	H	0.967485	0.225525	0.265475
708	H	0.964957	0.170997	0.268339
709	H	0.515948	0.171003	0.054062
710	H	0.008652	0.322031	0.24481
711	C	0.521571	0.233283	0.063591
712	C	0.505803	0.265306	0.068218
713	H	0.545967	0.236441	0.056467
714	H	0.519534	0.221004	0.09519
715	H	0.518745	0.278995	0.092304
716	H	0.982525	0.262317	0.081042
717	N	0.508845	0.261747	0.236423
718	O	0.489226	0.268757	0.207481
719	O	0.535131	0.265587	0.220158
720	N	0.492396	0.136256	0.98828
721	N	0.004179	0.358878	0.307924
722	C	0.668205	0.999844	0.028865
723	C	0.681857	0.001327	0.319866
724	C	0.71403	0.004925	0.314995
725	C	0.733101	0.006477	0.020177
726	C	0.718735	0.006465	0.062843
727	C	0.686776	0.00278	0.06669
728	H	0.676831	0.002779	0.097578
729	C	0.766055	0.010075	0.018934
730	C	0.784687	0.495217	0.32011
731	C	0.816884	0.495503	0.323195
732	C	0.831504	0.010504	0.025622
733	C	0.813399	0.025064	0.058092
734	C	0.781103	0.024727	0.05537
735	H	0.775134	0.481789	0.29595
736	H	0.82941	0.483188	0.30062
737	H	0.823803	0.034644	0.085349
738	H	0.668248	0.500682	0.292198
739	C	0.762537	0.036138	0.093476
740	C	0.737113	0.01231	0.103794
741	H	0.75216	0.058216	0.084427
742	H	0.77635	0.039753	0.123371
743	H	0.722991	0.021187	0.13099
744	H	0.747433	0.490628	0.114782
745	N	0.726572	0.009421	0.27204
746	O	0.721176	0.986991	0.246754
747	O	0.716518	0.033562	0.254113
748	N	0.861035	0.008293	0.034958
749	N	0.638507	0.4979	0.036641
750	C	0.528517	0.496183	0.369134
751	C	0.528067	0.49521	0.416264
752	C	0.970309	0.496552	0.416559
753	C	0.969762	0.997626	0.369427
754	C	0.940753	0.998205	0.347832
755	C	0.912887	0.997564	0.371782
756	C	0.914289	0.996299	0.418683
757	C	0.942571	0.496024	0.440729
758	C	0.555835	0.493701	0.440191
759	C	0.58402	0.49324	0.417928
760	C	0.585461	0.494468	0.370955
761	C	0.557454	0.995812	0.347311
762	C	0.998215	0.468618	0.647704
763	C	0.997025	0.470156	0.600625
764	C	0.999515	0.028003	0.603107
765	C	0.999835	0.027597	0.65029
766	C	0.001112	0.056228	0.580017
767	C	0.002936	0.084083	0.603213
768	C	0.002578	0.084638	0.65022
769	C	0.501278	0.056264	0.339808
770	C	0.498182	0.439041	0.334721
771	C	0.997227	0.411553	0.64291
772	C	0.995302	0.41407	0.596093
773	C	0.995315	0.442886	0.575286
774	H	0.993971	0.394913	0.576326
775	H	0.994204	0.443785	0.541318
776	H	0.001181	0.056717	0.545986
777	H	0.004491	0.104021	0.585134
778	H	0.501363	0.056393	0.373846
779	H	0.499162	0.437603	0.368666
780	H	0.940002	0.998914	0.647163
781	H	0.894709	0.995266	0.437423
782	H	0.942754	0.494978	0.474727
783	H	0.558005	0.9967	0.646638
784	H	0.555752	0.492906	0.474209
785	H	0.603531	0.492115	0.436778
786	C	0.499088	0.997548	0.342489
787	C	0.997616	0.999634	0.57611
788	H	0.517456	0.999171	0.553824
789	H	0.976806	0.501003	0.555864
790	C	0.499237	0.495556	0.442168
791	H	0.499734	0.015677	0.464081
792	H	0.498821	0.474803	0.462822
793	C	0.504274	0.112355	0.339718
794	C	0.613366	0.994823	0.348331
795	C	0.497645	0.383008	0.330564
796	H	0.491559	0.381053	0.362276
797	H	0.516804	0.114161	0.367167
798	H	0.613934	0.993357	0.648715
799	C	0.885005	0.997119	0.349547
800	H	0.88349	0.987286	0.653134
801	C	0.5055	0.32889	0.647382
802	C	0.506862	0.311227	0.60834
803	C	0.504959	0.278785	0.609606
804	C	0.501075	0.263773	0.65134
805	C	0.504014	0.281372	0.357781
806	C	0.505078	0.313887	0.355548
807	H	0.50553	0.326636	0.38413
808	C	0.496446	0.231179	0.655304
809	C	0.978639	0.214587	0.624136
810	C	0.97621	0.182476	0.626585
811	C	0.49089	0.166223	0.327603
812	C	0.505738	0.182697	0.361864
813	C	0.507554	0.215246	0.360057
814	H	0.967485	0.225525	0.598807
815	H	0.964957	0.170997	0.601672
816	H	0.515948	0.171003	0.387396
817	H	0.008652	0.322031	0.578143
818	C	0.521571	0.233283	0.396926
819	C	0.505803	0.265306	0.401551
820	H	0.545967	0.236441	0.389802
821	H	0.519534	0.221004	0.428525
822	H	0.518745	0.278995	0.425637
823	H	0.982525	0.262317	0.414376
824	N	0.508845	0.261747	0.569757
825	O	0.489226	0.268757	0.540816
826	O	0.535131	0.265587	0.553492
827	N	0.492396	0.136256	0.321613
828	N	0.004179	0.358878	0.641258
829	C	0.668205	0.999844	0.3622
830	C	0.681857	0.001327	0.6532
831	C	0.71403	0.004925	0.648329
832	C	0.733101	0.006477	0.353511
833	C	0.718735	0.006465	0.396178
834	C	0.686776	0.00278	0.400022
835	H	0.676831	0.002779	0.43091
836	C	0.766055	0.010075	0.352268
837	C	0.784687	0.495217	0.653443
838	C	0.816884	0.495503	0.65653
839	C	0.831504	0.010504	0.358957
840	C	0.813399	0.025064	0.391426
841	C	0.781103	0.024727	0.388705
842	H	0.775134	0.481789	0.629283
843	H	0.82941	0.483188	0.633955
844	H	0.823803	0.034644	0.418683
845	H	0.668248	0.500682	0.625532
846	C	0.762537	0.036138	0.42681
847	C	0.737113	0.01231	0.437127
848	H	0.75216	0.058216	0.417759
849	H	0.77635	0.039753	0.456705
850	H	0.722991	0.021187	0.464324
851	H	0.747433	0.490628	0.448115
852	N	0.726572	0.009421	0.605373
853	O	0.721176	0.986991	0.580087
854	O	0.716518	0.033562	0.587447
855	N	0.861035	0.008293	0.36829
856	N	0.638507	0.4979	0.369975
857	C	0.528517	0.496183	0.70247
858	C	0.528067	0.49521	0.749599
859	C	0.970309	0.496552	0.749895
860	C	0.969762	0.997626	0.702759
861	C	0.940753	0.998205	0.681164
862	C	0.912887	0.997564	0.705114
863	C	0.914289	0.996299	0.752018
864	C	0.942571	0.496024	0.774064
865	C	0.555835	0.493701	0.773526
866	C	0.58402	0.49324	0.751264
867	C	0.585461	0.494468	0.704287
868	C	0.557454	0.995812	0.680643
869	C	0.998215	0.468618	0.98104
870	C	0.997025	0.470156	0.933957
871	C	0.999515	0.028003	0.936439
872	C	0.999835	0.027597	0.983622
873	C	0.001112	0.056228	0.913353
874	C	0.002936	0.084083	0.936545
875	C	0.002578	0.084638	0.983555
876	C	0.501278	0.056264	0.673143
877	C	0.498182	0.439041	0.668056
878	C	0.997227	0.411553	0.976245
879	C	0.995302	0.41407	0.929425
880	C	0.995315	0.442886	0.908621
881	H	0.993971	0.394913	0.909661
882	H	0.994204	0.443785	0.874653
883	H	0.001181	0.056717	0.879321
884	H	0.004491	0.104021	0.918466
885	H	0.501363	0.056393	0.707178
886	H	0.499162	0.437603	0.702001
887	H	0.940002	0.998914	0.980495
888	H	0.894709	0.995266	0.770758
889	H	0.942754	0.494978	0.808062
890	H	0.558005	0.9967	0.979973
891	H	0.555752	0.492906	0.807541
892	H	0.603531	0.492115	0.770113
893	C	0.499088	0.997548	0.675821
894	C	0.997616	0.999634	0.909445
895	H	0.517456	0.999171	0.88716
896	H	0.976806	0.501003	0.889196
897	C	0.499237	0.495556	0.7755
898	H	0.499734	0.015677	0.797416
899	H	0.498821	0.474803	0.796154
900	C	0.504274	0.112355	0.67305
901	C	0.613366	0.994823	0.681663
902	C	0.497645	0.383008	0.663899
903	H	0.491559	0.381053	0.695608
904	H	0.516804	0.114161	0.700503
905	H	0.613934	0.993357	0.982047
906	C	0.885005	0.997119	0.682879
907	H	0.88349	0.987286	0.986466
908	C	0.5055	0.32889	0.980714
909	C	0.506862	0.311227	0.941672
910	C	0.504959	0.278785	0.942941
911	C	0.501075	0.263773	0.984675
912	C	0.504014	0.281372	0.691112
913	C	0.505078	0.313887	0.68888
914	H	0.50553	0.326636	0.717462
915	C	0.496446	0.231179	0.988635
916	C	0.978639	0.214587	0.957468
917	C	0.97621	0.182476	0.959917
918	C	0.49089	0.166223	0.660936
919	C	0.505738	0.182697	0.695196
920	C	0.507554	0.215246	0.693389
921	H	0.967485	0.225525	0.932143
922	H	0.964957	0.170997	0.935007
923	H	0.515948	0.171003	0.720728
924	H	0.008652	0.322031	0.911475
925	C	0.521571	0.233283	0.730257
926	C	0.505803	0.265306	0.734886
927	H	0.545967	0.236441	0.723134
928	H	0.519534	0.221004	0.761857
929	H	0.518745	0.278995	0.758969
930	H	0.982525	0.262317	0.747708
931	N	0.508845	0.261747	0.903089
932	O	0.489226	0.268757	0.874148
933	O	0.535131	0.265587	0.886824
934	N	0.492396	0.136256	0.654948
935	N	0.004179	0.358878	0.97459
936	C	0.668205	0.999844	0.695532
937	C	0.681857	0.001327	0.986532
938	C	0.71403	0.004925	0.981661
939	C	0.733101	0.006477	0.686843
940	C	0.718735	0.006465	0.72951
941	C	0.686776	0.00278	0.733358
942	H	0.676831	0.002779	0.764246
943	C	0.766055	0.010075	0.6856
944	C	0.784687	0.495217	0.986778
945	C	0.816884	0.495503	0.989862
946	C	0.831504	0.010504	0.692289
947	C	0.813399	0.025064	0.724758
948	C	0.781103	0.024727	0.722037
949	H	0.775134	0.481789	0.962619
950	H	0.82941	0.483188	0.967287
951	H	0.823803	0.034644	0.752015
952	H	0.668248	0.500682	0.958864
953	C	0.762537	0.036138	0.760142
954	C	0.737113	0.01231	0.770462
955	H	0.75216	0.058216	0.751094
956	H	0.77635	0.039753	0.790037
957	H	0.722991	0.021187	0.797656
958	H	0.747433	0.490628	0.781451
959	N	0.726572	0.009421	0.938708
960	O	0.721176	0.986991	0.913422
961	O	0.716518	0.033562	0.920779
962	N	0.861035	0.008293	0.701626
963	N	0.638507	0.4979	0.70331
964	C	0.528516	0.996183	0.035802
965	C	0.528067	0.995208	0.082931
966	C	0.970308	0.996552	0.083227
967	C	0.969763	0.497626	0.036093
968	C	0.940754	0.498205	0.014499
969	C	0.912888	0.497564	0.038448
970	C	0.914287	0.496298	0.085349
971	C	0.94257	0.996024	0.107396
972	C	0.555837	0.993701	0.106858
973	C	0.584022	0.993238	0.084595
974	C	0.585462	0.994468	0.037621
975	C	0.557452	0.495814	0.013976
976	C	0.998215	0.968619	0.314371
977	C	0.997024	0.970156	0.267291
978	C	0.999515	0.528003	0.269772
979	C	0.999835	0.527597	0.316956
980	C	0.001112	0.556227	0.246685
981	C	0.002936	0.584082	0.269879
982	C	0.002578	0.584638	0.316888
983	C	0.501277	0.556264	0.006476
984	C	0.498181	0.939041	0.001388
985	C	0.997226	0.911553	0.309577
986	C	0.995304	0.91407	0.262758
987	C	0.995314	0.942886	0.241952
988	H	0.99397	0.894913	0.242993
989	H	0.994204	0.943783	0.207984
990	H	0.001181	0.556718	0.212654
991	H	0.004491	0.60402	0.251801
992	H	0.501362	0.556393	0.040511
993	H	0.499163	0.937603	0.035333
994	H	0.940002	0.498915	0.313828
995	H	0.894709	0.495266	0.10409
996	H	0.942754	0.994978	0.141393
997	H	0.558005	0.496699	0.313305
998	H	0.555754	0.992906	0.140873
999	H	0.603531	0.992115	0.103446
1000	C	0.499088	0.497548	0.009156
1001	C	0.997618	0.499634	0.242777
1002	H	0.517455	0.49917	0.220491
1003	H	0.976807	0.001002	0.22253
1004	C	0.499237	0.995556	0.108833
1005	H	0.499734	0.515676	0.130747
1006	H	0.498823	0.974803	0.129487
1007	C	0.504273	0.612355	0.006383
1008	C	0.613366	0.494823	0.014996
1009	C	0.497645	0.883008	0.997231
1010	H	0.491558	0.881054	0.028942
1011	H	0.516806	0.614162	0.033834
1012	H	0.613933	0.49336	0.31538
1013	C	0.885005	0.497119	0.016213
1014	H	0.883491	0.487286	0.3198
1015	C	0.5055	0.82889	0.314047
1016	C	0.506862	0.811228	0.275007
1017	C	0.504959	0.778786	0.276273
1018	C	0.501074	0.763773	0.318006
1019	C	0.504014	0.781372	0.024447
1020	C	0.505077	0.813885	0.022213
1021	H	0.505532	0.826636	0.050795
1022	C	0.496446	0.731179	0.32197
1023	C	0.978638	0.714586	0.290802
1024	C	0.976212	0.682476	0.29325
1025	C	0.490891	0.666224	0.994271
1026	C	0.505737	0.682697	0.028529
1027	C	0.507555	0.715245	0.026722
1028	H	0.967485	0.725525	0.265475
1029	H	0.964957	0.670997	0.268339
1030	H	0.51595	0.671004	0.054062
1031	H	0.008652	0.822031	0.24481
1032	C	0.521571	0.733284	0.063591
1033	C	0.505802	0.765306	0.068218
1034	H	0.545969	0.736441	0.056467
1035	H	0.519533	0.721003	0.09519
1036	H	0.518746	0.778995	0.092304
1037	H	0.982524	0.762317	0.081042
1038	N	0.508844	0.761747	0.236423
1039	O	0.489228	0.768757	0.207481
1040	O	0.53513	0.765585	0.220158
1041	N	0.492395	0.636257	0.98828
1042	N	0.004179	0.858878	0.307924
1043	C	0.668207	0.499843	0.028865
1044	C	0.681857	0.501328	0.319866
1045	C	0.714029	0.504924	0.314995
1046	C	0.7331	0.506477	0.020177
1047	C	0.718734	0.506466	0.062843
1048	C	0.686775	0.50278	0.06669
1049	H	0.67683	0.50278	0.097578
1050	C	0.766057	0.510075	0.018934
1051	C	0.784686	0.995218	0.32011
1052	C	0.816884	0.995501	0.323195
1053	C	0.831503	0.510504	0.025622
1054	C	0.813401	0.525064	0.058092
1055	C	0.781102	0.524728	0.05537
1056	H	0.775133	0.981789	0.29595
1057	H	0.829409	0.983188	0.30062
1058	H	0.823803	0.534643	0.085349
1059	H	0.668249	0.000683	0.292198
1060	C	0.762537	0.536137	0.093476
1061	C	0.737113	0.512311	0.103794
1062	H	0.752159	0.558216	0.084427
1063	H	0.77635	0.539754	0.123371
1064	H	0.722993	0.521187	0.13099
1065	H	0.747432	0.990628	0.114782
1066	N	0.726571	0.50942	0.27204
1067	O	0.721177	0.486991	0.246754
1068	O	0.716517	0.533562	0.254113
1069	N	0.861037	0.508293	0.034958
1070	N	0.638507	0.997901	0.036641
1071	C	0.528516	0.996183	0.369134
1072	C	0.528067	0.995208	0.416264
1073	C	0.970308	0.996552	0.416559
1074	C	0.969763	0.497626	0.369427
1075	C	0.940754	0.498205	0.347832
1076	C	0.912888	0.497564	0.371782
1077	C	0.914287	0.496298	0.418683
1078	C	0.94257	0.996024	0.440729
1079	C	0.555837	0.993701	0.440191
1080	C	0.584022	0.993238	0.417928
1081	C	0.585462	0.994468	0.370955
1082	C	0.557452	0.495814	0.347311
1083	C	0.998215	0.968619	0.647704
1084	C	0.997024	0.970156	0.600625
1085	C	0.999515	0.528003	0.603107
1086	C	0.999835	0.527597	0.65029
1087	C	0.001112	0.556227	0.580017
1088	C	0.002936	0.584082	0.603213
1089	C	0.002578	0.584638	0.65022
1090	C	0.501277	0.556264	0.339808
1091	C	0.498181	0.939041	0.334721
1092	C	0.997226	0.911553	0.64291
1093	C	0.995304	0.91407	0.596093
1094	C	0.995314	0.942886	0.575286
1095	H	0.99397	0.894913	0.576326
1096	H	0.994204	0.943783	0.541318
1097	H	0.001181	0.556718	0.545986
1098	H	0.004491	0.60402	0.585134
1099	H	0.501362	0.556393	0.373846
1100	H	0.499163	0.937603	0.368666
1101	H	0.940002	0.498915	0.647163
1102	H	0.894709	0.495266	0.437423
1103	H	0.942754	0.994978	0.474727
1104	H	0.558005	0.496699	0.646638
1105	H	0.555754	0.992906	0.474209
1106	H	0.603531	0.992115	0.436778
1107	C	0.499088	0.497548	0.342489
1108	C	0.997618	0.499634	0.57611
1109	H	0.517455	0.49917	0.553824
1110	H	0.976807	0.001002	0.555864
1111	C	0.499237	0.995556	0.442168
1112	H	0.499734	0.515676	0.464081
1113	H	0.498823	0.974803	0.462822
1114	C	0.504273	0.612355	0.339718
1115	C	0.613366	0.494823	0.348331
1116	C	0.497645	0.883008	0.330564
1117	H	0.491558	0.881054	0.362276
1118	H	0.516806	0.614162	0.367167
1119	H	0.613933	0.49336	0.648715
1120	C	0.885005	0.497119	0.349547
1121	H	0.883491	0.487286	0.653134
1122	C	0.5055	0.82889	0.647382
1123	C	0.506862	0.811228	0.60834
1124	C	0.504959	0.778786	0.609606
1125	C	0.501074	0.763773	0.65134
1126	C	0.504014	0.781372	0.357781
1127	C	0.505077	0.813885	0.355548
1128	H	0.505532	0.826636	0.38413
1129	C	0.496446	0.731179	0.655304
1130	C	0.978638	0.714586	0.624136
1131	C	0.976212	0.682476	0.626585
1132	C	0.490891	0.666224	0.327603
1133	C	0.505737	0.682697	0.361864
1134	C	0.507555	0.715245	0.360057
1135	H	0.967485	0.725525	0.598807
1136	H	0.964957	0.670997	0.601672
1137	H	0.51595	0.671004	0.387396
1138	H	0.008652	0.822031	0.578143
1139	C	0.521571	0.733284	0.396926
1140	C	0.505802	0.765306	0.401551
1141	H	0.545969	0.736441	0.389802
1142	H	0.519533	0.721003	0.428525
1143	H	0.518746	0.778995	0.425637
1144	H	0.982524	0.762317	0.414376
1145	N	0.508844	0.761747	0.569757
1146	O	0.489228	0.768757	0.540816
1147	O	0.53513	0.765585	0.553492
1148	N	0.492395	0.636257	0.321613
1149	N	0.004179	0.858878	0.641258
1150	C	0.668207	0.499843	0.3622
1151	C	0.681857	0.501328	0.6532
1152	C	0.714029	0.504924	0.648329
1153	C	0.7331	0.506477	0.353511
1154	C	0.718734	0.506466	0.396178
1155	C	0.686775	0.50278	0.400022
1156	H	0.67683	0.50278	0.43091
1157	C	0.766057	0.510075	0.352268
1158	C	0.784686	0.995218	0.653443
1159	C	0.816884	0.995501	0.65653
1160	C	0.831503	0.510504	0.358957
1161	C	0.813401	0.525064	0.391426
1162	C	0.781102	0.524728	0.388705
1163	H	0.775133	0.981789	0.629283
1164	H	0.829409	0.983188	0.633955
1165	H	0.823803	0.534643	0.418683
1166	H	0.668249	0.000683	0.625532
1167	C	0.762537	0.536137	0.42681
1168	C	0.737113	0.512311	0.437127
1169	H	0.752159	0.558216	0.417759
1170	H	0.77635	0.539754	0.456705
1171	H	0.722993	0.521187	0.464324
1172	H	0.747432	0.990628	0.448115
1173	N	0.726571	0.50942	0.605373
1174	O	0.721177	0.486991	0.580087
1175	O	0.716517	0.533562	0.587447
1176	N	0.861037	0.508293	0.36829
1177	N	0.638507	0.997901	0.369975
1178	C	0.528516	0.996183	0.70247
1179	C	0.528067	0.995208	0.749599
1180	C	0.970308	0.996552	0.749895
1181	C	0.969763	0.497626	0.702759
1182	C	0.940754	0.498205	0.681164
1183	C	0.912888	0.497564	0.705114
1184	C	0.914287	0.496298	0.752018
1185	C	0.94257	0.996024	0.774064
1186	C	0.555837	0.993701	0.773526
1187	C	0.584022	0.993238	0.751264
1188	C	0.585462	0.994468	0.704287
1189	C	0.557452	0.495814	0.680643
1190	C	0.998215	0.968619	0.98104
1191	C	0.997024	0.970156	0.933957
1192	C	0.999515	0.528003	0.936439
1193	C	0.999835	0.527597	0.983622
1194	C	0.001112	0.556227	0.913353
1195	C	0.002936	0.584082	0.936545
1196	C	0.002578	0.584638	0.983555
1197	C	0.501277	0.556264	0.673143
1198	C	0.498181	0.939041	0.668056
1199	C	0.997226	0.911553	0.976245
1200	C	0.995304	0.91407	0.929425
1201	C	0.995314	0.942886	0.908621
1202	H	0.99397	0.894913	0.909661
1203	H	0.994204	0.943783	0.874653
1204	H	0.001181	0.556718	0.879321
1205	H	0.004491	0.60402	0.918466
1206	H	0.501362	0.556393	0.707178
1207	H	0.499163	0.937603	0.702001
1208	H	0.940002	0.498915	0.980495
1209	H	0.894709	0.495266	0.770758
1210	H	0.942754	0.994978	0.808062
1211	H	0.558005	0.496699	0.979973
1212	H	0.555754	0.992906	0.807541
1213	H	0.603531	0.992115	0.770113
1214	C	0.499088	0.497548	0.675821
1215	C	0.997618	0.499634	0.909445
1216	H	0.517455	0.49917	0.88716
1217	H	0.976807	0.001002	0.889196
1218	C	0.499237	0.995556	0.7755
1219	H	0.499734	0.515676	0.797416
1220	H	0.498823	0.974803	0.796154
1221	C	0.504273	0.612355	0.67305
1222	C	0.613366	0.494823	0.681663
1223	C	0.497645	0.883008	0.663899
1224	H	0.491558	0.881054	0.695608
1225	H	0.516806	0.614162	0.700503
1226	H	0.613933	0.49336	0.982047
1227	C	0.885005	0.497119	0.682879
1228	H	0.883491	0.487286	0.986466
1229	C	0.5055	0.82889	0.980714
1230	C	0.506862	0.811228	0.941672
1231	C	0.504959	0.778786	0.942941
1232	C	0.501074	0.763773	0.984675
1233	C	0.504014	0.781372	0.691112
1234	C	0.505077	0.813885	0.68888
1235	H	0.505532	0.826636	0.717462
1236	C	0.496446	0.731179	0.988635
1237	C	0.978638	0.714586	0.957468
1238	C	0.976212	0.682476	0.959917
1239	C	0.490891	0.666224	0.660936
1240	C	0.505737	0.682697	0.695196
1241	C	0.507555	0.715245	0.693389
1242	H	0.967485	0.725525	0.932143
1243	H	0.964957	0.670997	0.935007
1244	H	0.51595	0.671004	0.720728
1245	H	0.008652	0.822031	0.911475
1246	C	0.521571	0.733284	0.730257
1247	C	0.505802	0.765306	0.734886
1248	H	0.545969	0.736441	0.723134
1249	H	0.519533	0.721003	0.761857
1250	H	0.518746	0.778995	0.758969
1251	H	0.982524	0.762317	0.747708
1252	N	0.508844	0.761747	0.903089
1253	O	0.489228	0.768757	0.874148
1254	O	0.53513	0.765585	0.886824
1255	N	0.492395	0.636257	0.654948
1256	N	0.004179	0.858878	0.97459
1257	C	0.668207	0.499843	0.695532
1258	C	0.681857	0.501328	0.986532
1259	C	0.714029	0.504924	0.981661
1260	C	0.7331	0.506477	0.686843
1261	C	0.718734	0.506466	0.72951
1262	C	0.686775	0.50278	0.733358
1263	H	0.67683	0.50278	0.764246
1264	C	0.766057	0.510075	0.6856
1265	C	0.784686	0.995218	0.986778
1266	C	0.816884	0.995501	0.989862
1267	C	0.831503	0.510504	0.692289
1268	C	0.813401	0.525064	0.724758
1269	C	0.781102	0.524728	0.722037
1270	H	0.775133	0.981789	0.962619
1271	H	0.829409	0.983188	0.967287
1272	H	0.823803	0.534643	0.752015
1273	H	0.668249	0.000683	0.958864
1274	C	0.762537	0.536137	0.760142
1275	C	0.737113	0.512311	0.770462
1276	H	0.752159	0.558216	0.751094
1277	H	0.77635	0.539754	0.790037
1278	H	0.722993	0.521187	0.797656
1279	H	0.747432	0.990628	0.781451
1280	N	0.726571	0.50942	0.938708
1281	O	0.721177	0.486991	0.913422
1282	O	0.716517	0.533562	0.920779
1283	N	0.861037	0.508293	0.701626
1284	N	0.638507	0.997901	0.70331
