data_C576H576N72_2018-02-15_10:45:53
#******************************************
#
# CIF file created by Zeo++
# Zeo++ is an open source package to
# analyze microporous materials
#
#*******************************************

_cell_length_a		45.8869   
_cell_length_b		45.8869   
_cell_length_c		29.7438   
_cell_angle_alpha		90   
_cell_angle_beta		90   
_cell_angle_gamma		120   

_symmetry_space_group_name_H-M		'P1'
_symmetry_Int_Tables_number		1
_symmetry_cell_setting		Monoclinic

loop_
_symmetry_equiv_pos_as_xyz
'+x,+y,+z'

loop_
_atom_site_label
_atom_site_type_symbol
_atom_site_fract_x
_atom_site_fract_y
_atom_site_fract_z
1	C	0.042358	0.264222	0.006365
2	C	0.017666	0.230337	0.017527
3	C	0.030669	0.286639	0.326859
4	C	0.027914	0.208103	0.041736
5	H	0.046457	0.222273	0.067758
6	H	0.038674	0.197933	0.017983
7	H	0.007168	0.187236	0.059446
8	C	0.05336	0.318607	0.302054
9	H	0.069173	0.314749	0.278156
10	H	0.069211	0.338396	0.325765
11	H	0.039598	0.327505	0.281706
12	C	0.077296	0.274298	0.007774
13	H	0.083918	0.256243	0.010671
14	C	0.042358	0.264222	0.339698
15	C	0.017666	0.230337	0.35086
16	C	0.030669	0.286639	0.660191
17	C	0.027914	0.208103	0.37507
18	H	0.046457	0.222273	0.401092
19	H	0.038674	0.197933	0.351317
20	H	0.007168	0.187236	0.392781
21	C	0.05336	0.318607	0.635386
22	H	0.069173	0.314749	0.611489
23	H	0.069211	0.338396	0.659099
24	H	0.039598	0.327505	0.615039
25	C	0.077296	0.274298	0.341106
26	H	0.083918	0.256243	0.344004
27	C	0.042358	0.264222	0.673031
28	C	0.017666	0.230337	0.684193
29	C	0.030669	0.286639	0.993525
30	C	0.027914	0.208103	0.708403
31	H	0.046457	0.222273	0.734425
32	H	0.038674	0.197933	0.68465
33	H	0.007168	0.187236	0.726114
34	C	0.05336	0.318607	0.96872
35	H	0.069173	0.314749	0.944822
36	H	0.069211	0.338396	0.992432
37	H	0.039598	0.327505	0.948372
38	C	0.077296	0.274298	0.67444
39	H	0.083918	0.256243	0.677338
40	C	0.042359	0.764222	0.006365
41	C	0.017666	0.730338	0.017527
42	C	0.030669	0.786638	0.326859
43	C	0.027916	0.708103	0.041736
44	H	0.046457	0.722273	0.067758
45	H	0.038673	0.697932	0.017983
46	H	0.007169	0.687235	0.059446
47	C	0.053359	0.818606	0.302054
48	H	0.069174	0.814749	0.278156
49	H	0.069213	0.838398	0.325765
50	H	0.039598	0.827504	0.281706
51	C	0.077296	0.774297	0.007774
52	H	0.083918	0.756242	0.010671
53	C	0.042359	0.764222	0.339698
54	C	0.017666	0.730338	0.35086
55	C	0.030669	0.786638	0.660191
56	C	0.027916	0.708103	0.37507
57	H	0.046457	0.722273	0.401092
58	H	0.038673	0.697932	0.351317
59	H	0.007169	0.687235	0.392781
60	C	0.053359	0.818606	0.635386
61	H	0.069174	0.814749	0.611489
62	H	0.069213	0.838398	0.659099
63	H	0.039598	0.827504	0.615039
64	C	0.077296	0.774297	0.341106
65	H	0.083918	0.756242	0.344004
66	C	0.042359	0.764222	0.673031
67	C	0.017666	0.730338	0.684193
68	C	0.030669	0.786638	0.993525
69	C	0.027916	0.708103	0.708403
70	H	0.046457	0.722273	0.734425
71	H	0.038673	0.697932	0.68465
72	H	0.007169	0.687235	0.726114
73	C	0.053359	0.818606	0.96872
74	H	0.069174	0.814749	0.944822
75	H	0.069213	0.838398	0.992432
76	H	0.039598	0.827504	0.948372
77	C	0.077296	0.774297	0.67444
78	H	0.083918	0.756242	0.677338
79	H	0.007747	0.328856	0.340659
80	H	0.007747	0.328856	0.673993
81	H	0.007747	0.328856	0.007325
82	H	0.007747	0.828858	0.340659
83	H	0.007747	0.828858	0.673993
84	H	0.007747	0.828858	0.007325
85	C	0.154599	0.302364	0.008295
86	C	0.137302	0.320683	0.008301
87	C	0.156393	0.356194	0.008306
88	H	0.144015	0.369531	0.007897
89	H	0.141262	0.276648	0.007885
90	N	0.10324	0.30645	0.007528
91	C	0.154599	0.302364	0.341628
92	C	0.137302	0.320683	0.341634
93	C	0.156393	0.356194	0.341641
94	H	0.144015	0.369531	0.341231
95	H	0.141262	0.276648	0.341217
96	N	0.10324	0.30645	0.340861
97	C	0.154599	0.302364	0.674961
98	C	0.137302	0.320683	0.674968
99	C	0.156393	0.356194	0.674974
100	H	0.144015	0.369531	0.674564
101	H	0.141262	0.276648	0.674551
102	N	0.10324	0.30645	0.674194
103	C	0.1546	0.802363	0.008295
104	C	0.137301	0.820682	0.008301
105	C	0.156393	0.856194	0.008306
106	H	0.144015	0.869531	0.007897
107	H	0.141263	0.776648	0.007885
108	N	0.10324	0.80645	0.007528
109	C	0.1546	0.802363	0.341628
110	C	0.137301	0.820682	0.341634
111	C	0.156393	0.856194	0.341641
112	H	0.144015	0.869531	0.341231
113	H	0.141263	0.776648	0.341217
114	N	0.10324	0.80645	0.340861
115	C	0.1546	0.802363	0.674961
116	C	0.137301	0.820682	0.674968
117	C	0.156393	0.856194	0.674974
118	H	0.144015	0.869531	0.674564
119	H	0.141263	0.776648	0.674551
120	N	0.10324	0.80645	0.674194
121	C	0.19011	0.318783	0.008265
122	C	0.19201	0.373492	0.008278
123	H	0.181929	0.181064	0.340347
124	C	0.192243	0.236974	0.301846
125	H	0.19613	0.256683	0.278001
126	H	0.17241	0.232983	0.325511
127	H	0.183391	0.214352	0.28143
128	H	0.203244	0.038451	0.998827
129	C	0.188876	0.48288	0.041867
130	H	0.184558	0.464339	0.067867
131	H	0.167894	0.472118	0.018195
132	H	0.188794	0.503628	0.059627
133	H	0.180944	0.426868	0.010706
134	C	0.19011	0.318783	0.341597
135	C	0.19201	0.373492	0.341611
136	H	0.181929	0.181064	0.67368
137	C	0.192243	0.236974	0.635178
138	H	0.19613	0.256683	0.611334
139	H	0.17241	0.232983	0.658843
140	H	0.183391	0.214352	0.614763
141	H	0.203244	0.038451	0.332159
142	C	0.188876	0.48288	0.375201
143	H	0.184558	0.464339	0.4012
144	H	0.167894	0.472118	0.351529
145	H	0.188794	0.503628	0.392959
146	H	0.180944	0.426868	0.344038
147	C	0.19011	0.318783	0.674931
148	C	0.19201	0.373492	0.674944
149	H	0.181929	0.181064	0.007014
150	C	0.192243	0.236974	0.968511
151	H	0.19613	0.256683	0.944668
152	H	0.17241	0.232983	0.992177
153	H	0.183391	0.214352	0.948097
154	H	0.203244	0.038451	0.665493
155	C	0.188876	0.48288	0.708534
156	H	0.184558	0.464339	0.734533
157	H	0.167894	0.472118	0.684862
158	H	0.188794	0.503628	0.726293
159	H	0.180944	0.426868	0.677371
160	C	0.190111	0.818785	0.008265
161	C	0.192011	0.873494	0.008278
162	H	0.181929	0.681065	0.340347
163	C	0.192244	0.736974	0.301846
164	H	0.196131	0.756685	0.278001
165	H	0.17241	0.732983	0.325511
166	H	0.183391	0.714352	0.28143
167	H	0.203245	0.538453	0.998827
168	C	0.188875	0.98288	0.041867
169	H	0.184558	0.964339	0.067867
170	H	0.167895	0.972117	0.018195
171	H	0.188793	0.003627	0.059627
172	H	0.180946	0.92687	0.010706
173	C	0.190111	0.818785	0.341597
174	C	0.192011	0.873494	0.341611
175	H	0.181929	0.681065	0.67368
176	C	0.192244	0.736974	0.635178
177	H	0.196131	0.756685	0.611334
178	H	0.17241	0.732983	0.658843
179	H	0.183391	0.714352	0.614763
180	H	0.203245	0.538453	0.332159
181	C	0.188875	0.98288	0.375201
182	H	0.184558	0.964339	0.4012
183	H	0.167895	0.972117	0.351529
184	H	0.188793	0.003627	0.392959
185	H	0.180946	0.92687	0.344038
186	C	0.190111	0.818785	0.674931
187	C	0.192011	0.873494	0.674944
188	H	0.181929	0.681065	0.007014
189	C	0.192244	0.736974	0.968511
190	H	0.196131	0.756685	0.944668
191	H	0.17241	0.732983	0.992177
192	H	0.183391	0.714352	0.948097
193	H	0.203245	0.538453	0.665493
194	C	0.188875	0.98288	0.708534
195	H	0.184558	0.964339	0.734533
196	H	0.167895	0.972117	0.684862
197	H	0.188793	0.003627	0.726293
198	H	0.180946	0.92687	0.677371
199	C	0.20843	0.3544	0.008286
200	H	0.234144	0.366778	0.007841
201	N	0.204346	0.298956	0.007479
202	N	0.211836	0.407554	0.007471
203	C	0.323775	0.190745	0.006881
204	C	0.359225	0.206226	0.007009
205	C	0.375591	0.187008	0.006874
206	C	0.355623	0.151557	0.006963
207	C	0.320039	0.135192	0.006842
208	C	0.304556	0.155161	0.00697
209	H	0.367325	0.137569	0.006972
210	H	0.278866	0.143459	0.006982
211	H	0.373213	0.231917	0.007044
212	N	0.310466	0.211392	0.006262
213	N	0.409549	0.200319	0.006262
214	N	0.299392	0.101235	0.006196
215	C	0.246575	0.28031	0.006325
216	C	0.280444	0.289487	0.017556
217	C	0.292441	0.2666	0.009213
218	C	0.268942	0.231431	0.337001
219	C	0.234019	0.221415	0.332521
220	C	0.224173	0.246224	0.326733
221	C	0.329547	0.280358	0.003638
222	H	0.34383	0.30754	0.998877
223	H	0.334374	0.270013	0.973363
224	H	0.339706	0.274165	0.032959
225	C	0.302632	0.321926	0.041888
226	H	0.28841	0.326254	0.067878
227	H	0.312853	0.342898	0.0182
228	H	0.32346	0.322012	0.059656
229	C	0.207173	0.184981	0.335358
230	H	0.2117	0.173177	0.364331
231	H	0.207118	0.171811	0.304756
232	C	0.236501	0.305172	0.007738
233	H	0.254553	0.329848	0.010699
234	C	0.278849	0.206368	0.335759
235	H	0.260953	0.181973	0.330358
236	C	0.230478	0.468429	0.006287
237	C	0.221306	0.493125	0.017515
238	C	0.244186	0.028005	0.009145
239	C	0.279355	0.039673	0.336924
240	C	0.289369	0.014764	0.332434
241	C	0.264556	0.48011	0.326658
242	C	0.230426	0.051353	0.003581
243	H	0.240767	0.066526	0.973305
244	H	0.236622	0.067703	0.032905
245	C	0.325805	0.024355	0.335216
246	H	0.337627	0.040681	0.36419
247	H	0.338954	0.037476	0.304605
248	H	0.329729	0.003029	0.340172
249	C	0.273789	0.457424	0.301751
250	H	0.254062	0.441591	0.277936
251	H	0.277806	0.441594	0.325407
252	H	0.296393	0.471192	0.2813
253	C	0.205618	0.433493	0.007725
254	C	0.304415	0.074643	0.33568
255	H	0.328813	0.081143	0.330301
256	C	0.482784	0.218348	0.009169
257	C	0.471111	0.241852	0.337048
258	C	0.496014	0.276782	0.332656
259	C	0.459446	0.181252	0.00347
260	H	0.472351	0.166985	0.998628
261	H	0.444281	0.17648	0.973201
262	H	0.443087	0.171033	0.032777
263	C	0.486423	0.303622	0.335597
264	H	0.470077	0.299042	0.36457
265	H	0.473322	0.303727	0.305009
266	H	0.507749	0.328856	0.340659
267	C	0.436141	0.231941	0.335808
268	H	0.42964	0.249842	0.330454
269	C	0.20843	0.3544	0.341621
270	H	0.234144	0.366778	0.341174
271	N	0.204346	0.298956	0.340814
272	N	0.211836	0.407554	0.340804
273	C	0.323775	0.190745	0.340215
274	C	0.359225	0.206226	0.340343
275	C	0.375591	0.187008	0.340205
276	C	0.355623	0.151557	0.340296
277	C	0.320039	0.135192	0.340175
278	C	0.304556	0.155161	0.340303
279	H	0.367325	0.137569	0.340306
280	H	0.278866	0.143459	0.340316
281	H	0.373213	0.231917	0.340377
282	N	0.310466	0.211392	0.339597
283	N	0.409549	0.200319	0.339597
284	N	0.299392	0.101235	0.33953
285	C	0.246575	0.28031	0.339657
286	C	0.280444	0.289487	0.35089
287	C	0.292441	0.2666	0.342545
288	C	0.268942	0.231431	0.670335
289	C	0.234019	0.221415	0.665853
290	C	0.224173	0.246224	0.660067
291	C	0.329547	0.280358	0.336971
292	H	0.34383	0.30754	0.332209
293	H	0.334374	0.270013	0.306695
294	H	0.339706	0.274165	0.366291
295	C	0.302632	0.321926	0.375221
296	H	0.28841	0.326254	0.401213
297	H	0.312853	0.342898	0.351532
298	H	0.32346	0.322012	0.392989
299	C	0.207173	0.184981	0.668691
300	H	0.2117	0.173177	0.697665
301	H	0.207118	0.171811	0.638089
302	C	0.236501	0.305172	0.341069
303	H	0.254553	0.329848	0.344031
304	C	0.278849	0.206368	0.669091
305	H	0.260953	0.181973	0.663691
306	C	0.230478	0.468429	0.33962
307	C	0.221306	0.493125	0.35085
308	C	0.244186	0.028005	0.342478
309	C	0.279355	0.039673	0.670257
310	C	0.289369	0.014764	0.665766
311	C	0.264556	0.48011	0.65999
312	C	0.230426	0.051353	0.336914
313	H	0.240767	0.066526	0.306639
314	H	0.236622	0.067703	0.366238
315	C	0.325805	0.024355	0.668549
316	H	0.337627	0.040681	0.697524
317	H	0.338954	0.037476	0.637938
318	H	0.329729	0.003029	0.673505
319	C	0.273789	0.457424	0.635084
320	H	0.254062	0.441591	0.61127
321	H	0.277806	0.441594	0.658739
322	H	0.296393	0.471192	0.614632
323	C	0.205618	0.433493	0.341059
324	C	0.304415	0.074643	0.669013
325	H	0.328813	0.081143	0.663634
326	C	0.482784	0.218348	0.342502
327	C	0.471111	0.241852	0.670382
328	C	0.496014	0.276782	0.665988
329	C	0.459446	0.181252	0.336803
330	H	0.472351	0.166985	0.33196
331	H	0.444281	0.17648	0.306535
332	H	0.443087	0.171033	0.36611
333	C	0.486423	0.303622	0.668929
334	H	0.470077	0.299042	0.697903
335	H	0.473322	0.303727	0.638341
336	H	0.507749	0.328856	0.673993
337	C	0.436141	0.231941	0.669141
338	H	0.42964	0.249842	0.663789
339	C	0.20843	0.3544	0.674954
340	H	0.234144	0.366778	0.674507
341	N	0.204346	0.298956	0.674144
342	N	0.211836	0.407554	0.674137
343	C	0.323775	0.190745	0.673549
344	C	0.359225	0.206226	0.673677
345	C	0.375591	0.187008	0.673539
346	C	0.355623	0.151557	0.67363
347	C	0.320039	0.135192	0.673508
348	C	0.304556	0.155161	0.673636
349	H	0.367325	0.137569	0.67364
350	H	0.278866	0.143459	0.67365
351	H	0.373213	0.231917	0.67371
352	N	0.310466	0.211392	0.67293
353	N	0.409549	0.200319	0.67293
354	N	0.299392	0.101235	0.672863
355	C	0.246575	0.28031	0.672991
356	C	0.280444	0.289487	0.684223
357	C	0.292441	0.2666	0.675879
358	C	0.268942	0.231431	0.003668
359	C	0.234019	0.221415	0.999186
360	C	0.224173	0.246224	0.9934
361	C	0.329547	0.280358	0.670304
362	H	0.34383	0.30754	0.665544
363	H	0.334374	0.270013	0.640029
364	H	0.339706	0.274165	0.699625
365	C	0.302632	0.321926	0.708554
366	H	0.28841	0.326254	0.734546
367	H	0.312853	0.342898	0.684865
368	H	0.32346	0.322012	0.726323
369	C	0.207173	0.184981	0.002024
370	H	0.2117	0.173177	0.030999
371	H	0.207118	0.171811	0.971423
372	C	0.236501	0.305172	0.674403
373	H	0.254553	0.329848	0.677365
374	C	0.278849	0.206368	0.002424
375	H	0.260953	0.181973	0.997025
376	C	0.230478	0.468429	0.672954
377	C	0.221306	0.493125	0.684183
378	C	0.244186	0.028005	0.675811
379	C	0.279355	0.039673	0.003591
380	C	0.289369	0.014764	0.999099
381	C	0.264556	0.48011	0.993323
382	C	0.230426	0.051353	0.670247
383	H	0.240767	0.066526	0.639972
384	H	0.236622	0.067703	0.699571
385	C	0.325805	0.024355	0.001883
386	H	0.337627	0.040681	0.030856
387	H	0.338954	0.037476	0.971271
388	H	0.329729	0.003029	0.006839
389	C	0.273789	0.457424	0.968417
390	H	0.254062	0.441591	0.944604
391	H	0.277806	0.441594	0.992072
392	H	0.296393	0.471192	0.947966
393	C	0.205618	0.433493	0.674393
394	C	0.304415	0.074643	0.002347
395	H	0.328813	0.081143	0.996968
396	C	0.482784	0.218348	0.675835
397	C	0.471111	0.241852	0.003715
398	C	0.496014	0.276782	0.999321
399	C	0.459446	0.181252	0.670136
400	H	0.472351	0.166985	0.665295
401	H	0.444281	0.17648	0.639868
402	H	0.443087	0.171033	0.699443
403	C	0.486423	0.303622	0.002263
404	H	0.470077	0.299042	0.031238
405	H	0.473322	0.303727	0.971675
406	H	0.507749	0.328856	0.007325
407	C	0.436141	0.231941	0.002475
408	H	0.42964	0.249842	0.997122
409	C	0.208432	0.854402	0.008286
410	H	0.234146	0.86678	0.007841
411	N	0.204347	0.798958	0.007479
412	N	0.211837	0.907554	0.007471
413	C	0.323776	0.690745	0.006881
414	C	0.359227	0.706226	0.007009
415	C	0.375592	0.687008	0.006874
416	C	0.355623	0.651557	0.006963
417	C	0.32004	0.635193	0.006842
418	C	0.304557	0.655161	0.00697
419	H	0.367325	0.637569	0.006972
420	H	0.278867	0.64346	0.006982
421	H	0.373214	0.731916	0.007044
422	N	0.310466	0.711392	0.006262
423	N	0.409549	0.700318	0.006262
424	N	0.299391	0.601234	0.006196
425	C	0.246575	0.780309	0.006325
426	C	0.280444	0.789486	0.017556
427	C	0.292441	0.7666	0.009213
428	C	0.268942	0.731431	0.337001
429	C	0.234019	0.721415	0.332521
430	C	0.224174	0.746224	0.326733
431	C	0.329547	0.780357	0.003638
432	H	0.34383	0.807539	0.998877
433	H	0.334374	0.770012	0.973363
434	H	0.339706	0.774164	0.032959
435	C	0.302632	0.821925	0.041888
436	H	0.288411	0.826256	0.067878
437	H	0.312853	0.842897	0.0182
438	H	0.323462	0.822014	0.059656
439	C	0.207173	0.68498	0.335358
440	H	0.211702	0.673178	0.364331
441	H	0.207119	0.671812	0.304756
442	C	0.236502	0.805171	0.007738
443	H	0.254553	0.829847	0.010699
444	C	0.27885	0.70637	0.335759
445	H	0.260953	0.681973	0.330358
446	C	0.230478	0.968428	0.006287
447	C	0.221306	0.993124	0.017515
448	C	0.244185	0.528004	0.009145
449	C	0.279355	0.539673	0.336924
450	C	0.289368	0.514763	0.332434
451	C	0.264556	0.980109	0.326658
452	C	0.230426	0.551352	0.003581
453	H	0.240767	0.566526	0.973305
454	H	0.236623	0.567703	0.032905
455	C	0.325806	0.524356	0.335216
456	H	0.337628	0.540682	0.36419
457	H	0.338954	0.537476	0.304605
458	H	0.329729	0.503029	0.340172
459	C	0.273791	0.957426	0.301751
460	H	0.254061	0.941591	0.277936
461	H	0.277806	0.941593	0.325407
462	H	0.296394	0.971193	0.2813
463	C	0.205618	0.933493	0.007725
464	C	0.304416	0.574643	0.33568
465	H	0.328814	0.581143	0.330301
466	C	0.482785	0.718348	0.009169
467	C	0.471111	0.741851	0.337048
468	C	0.496016	0.776784	0.332656
469	C	0.459445	0.681251	0.00347
470	H	0.472352	0.666985	0.998628
471	H	0.44428	0.67648	0.973201
472	H	0.443086	0.671032	0.032777
473	C	0.486423	0.803621	0.335597
474	H	0.470077	0.799041	0.36457
475	H	0.473323	0.803729	0.305009
476	H	0.507749	0.828858	0.340659
477	C	0.436141	0.731941	0.335808
478	H	0.429642	0.749843	0.330454
479	C	0.208432	0.854402	0.341621
480	H	0.234146	0.86678	0.341174
481	N	0.204347	0.798958	0.340814
482	N	0.211837	0.907554	0.340804
483	C	0.323776	0.690745	0.340215
484	C	0.359227	0.706226	0.340343
485	C	0.375592	0.687008	0.340205
486	C	0.355623	0.651557	0.340296
487	C	0.32004	0.635193	0.340175
488	C	0.304557	0.655161	0.340303
489	H	0.367325	0.637569	0.340306
490	H	0.278867	0.64346	0.340316
491	H	0.373214	0.731916	0.340377
492	N	0.310466	0.711392	0.339597
493	N	0.409549	0.700318	0.339597
494	N	0.299391	0.601234	0.33953
495	C	0.246575	0.780309	0.339657
496	C	0.280444	0.789486	0.35089
497	C	0.292441	0.7666	0.342545
498	C	0.268942	0.731431	0.670335
499	C	0.234019	0.721415	0.665853
500	C	0.224174	0.746224	0.660067
501	C	0.329547	0.780357	0.336971
502	H	0.34383	0.807539	0.332209
503	H	0.334374	0.770012	0.306695
504	H	0.339706	0.774164	0.366291
505	C	0.302632	0.821925	0.375221
506	H	0.288411	0.826256	0.401213
507	H	0.312853	0.842897	0.351532
508	H	0.323462	0.822014	0.392989
509	C	0.207173	0.68498	0.668691
510	H	0.211702	0.673178	0.697665
511	H	0.207119	0.671812	0.638089
512	C	0.236502	0.805171	0.341069
513	H	0.254553	0.829847	0.344031
514	C	0.27885	0.70637	0.669091
515	H	0.260953	0.681973	0.663691
516	C	0.230478	0.968428	0.33962
517	C	0.221306	0.993124	0.35085
518	C	0.244185	0.528004	0.342478
519	C	0.279355	0.539673	0.670257
520	C	0.289368	0.514763	0.665766
521	C	0.264556	0.980109	0.65999
522	C	0.230426	0.551352	0.336914
523	H	0.240767	0.566526	0.306639
524	H	0.236623	0.567703	0.366238
525	C	0.325806	0.524356	0.668549
526	H	0.337628	0.540682	0.697524
527	H	0.338954	0.537476	0.637938
528	H	0.329729	0.503029	0.673505
529	C	0.273791	0.957426	0.635084
530	H	0.254061	0.941591	0.61127
531	H	0.277806	0.941593	0.658739
532	H	0.296394	0.971193	0.614632
533	C	0.205618	0.933493	0.341059
534	C	0.304416	0.574643	0.669013
535	H	0.328814	0.581143	0.663634
536	C	0.482785	0.718348	0.342502
537	C	0.471111	0.741851	0.670382
538	C	0.496016	0.776784	0.665988
539	C	0.459445	0.681251	0.336803
540	H	0.472352	0.666985	0.33196
541	H	0.44428	0.67648	0.306535
542	H	0.443086	0.671032	0.36611
543	C	0.486423	0.803621	0.668929
544	H	0.470077	0.799041	0.697903
545	H	0.473323	0.803729	0.638341
546	H	0.507749	0.828858	0.673993
547	C	0.436141	0.731941	0.669141
548	H	0.429642	0.749843	0.663789
549	C	0.208432	0.854402	0.674954
550	H	0.234146	0.86678	0.674507
551	N	0.204347	0.798958	0.674144
552	N	0.211837	0.907554	0.674137
553	C	0.323776	0.690745	0.673549
554	C	0.359227	0.706226	0.673677
555	C	0.375592	0.687008	0.673539
556	C	0.355623	0.651557	0.67363
557	C	0.32004	0.635193	0.673508
558	C	0.304557	0.655161	0.673636
559	H	0.367325	0.637569	0.67364
560	H	0.278867	0.64346	0.67365
561	H	0.373214	0.731916	0.67371
562	N	0.310466	0.711392	0.67293
563	N	0.409549	0.700318	0.67293
564	N	0.299391	0.601234	0.672863
565	C	0.246575	0.780309	0.672991
566	C	0.280444	0.789486	0.684223
567	C	0.292441	0.7666	0.675879
568	C	0.268942	0.731431	0.003668
569	C	0.234019	0.721415	0.999186
570	C	0.224174	0.746224	0.9934
571	C	0.329547	0.780357	0.670304
572	H	0.34383	0.807539	0.665544
573	H	0.334374	0.770012	0.640029
574	H	0.339706	0.774164	0.699625
575	C	0.302632	0.821925	0.708554
576	H	0.288411	0.826256	0.734546
577	H	0.312853	0.842897	0.684865
578	H	0.323462	0.822014	0.726323
579	C	0.207173	0.68498	0.002024
580	H	0.211702	0.673178	0.030999
581	H	0.207119	0.671812	0.971423
582	C	0.236502	0.805171	0.674403
583	H	0.254553	0.829847	0.677365
584	C	0.27885	0.70637	0.002424
585	H	0.260953	0.681973	0.997025
586	C	0.230478	0.968428	0.672954
587	C	0.221306	0.993124	0.684183
588	C	0.244185	0.528004	0.675811
589	C	0.279355	0.539673	0.003591
590	C	0.289368	0.514763	0.999099
591	C	0.264556	0.980109	0.993323
592	C	0.230426	0.551352	0.670247
593	H	0.240767	0.566526	0.639972
594	H	0.236623	0.567703	0.699571
595	C	0.325806	0.524356	0.001883
596	H	0.337628	0.540682	0.030856
597	H	0.338954	0.537476	0.971271
598	H	0.329729	0.503029	0.006839
599	C	0.273791	0.957426	0.968417
600	H	0.254061	0.941591	0.944604
601	H	0.277806	0.941593	0.992072
602	H	0.296394	0.971193	0.947966
603	C	0.205618	0.933493	0.674393
604	C	0.304416	0.574643	0.002347
605	H	0.328814	0.581143	0.996968
606	C	0.482785	0.718348	0.675835
607	C	0.471111	0.741851	0.003715
608	C	0.496016	0.776784	0.999321
609	C	0.459445	0.681251	0.670136
610	H	0.472352	0.666985	0.665295
611	H	0.44428	0.67648	0.639868
612	H	0.443086	0.671032	0.699443
613	C	0.486423	0.803621	0.002263
614	H	0.470077	0.799041	0.031238
615	H	0.473323	0.803729	0.971675
616	H	0.507749	0.828858	0.007325
617	C	0.436141	0.731941	0.002475
618	H	0.429642	0.749843	0.997122
619	C	0.690112	0.318783	0.008265
620	C	0.6546	0.302364	0.008295
621	C	0.637301	0.320683	0.008301
622	C	0.656393	0.356194	0.008306
623	C	0.692011	0.373492	0.008278
624	C	0.708431	0.3544	0.008286
625	H	0.644015	0.369531	0.007897
626	H	0.734146	0.366778	0.007841
627	H	0.641263	0.276648	0.007885
628	N	0.704347	0.298956	0.007479
629	N	0.603241	0.30645	0.007528
630	N	0.711838	0.407554	0.007471
631	C	0.823777	0.190745	0.006881
632	C	0.859227	0.206226	0.007009
633	C	0.875592	0.187008	0.006874
634	C	0.855622	0.151557	0.006963
635	C	0.82004	0.135192	0.006842
636	C	0.804557	0.155161	0.00697
637	H	0.867326	0.137569	0.006972
638	H	0.778866	0.143459	0.006982
639	H	0.873214	0.231917	0.007044
640	N	0.810466	0.211392	0.006262
641	N	0.90955	0.200319	0.006262
642	N	0.799391	0.101235	0.006196
643	C	0.746577	0.28031	0.006325
644	C	0.780444	0.289487	0.017556
645	C	0.792441	0.2666	0.009213
646	C	0.768941	0.231431	0.337001
647	C	0.734019	0.221415	0.332521
648	C	0.724173	0.246224	0.326733
649	C	0.829548	0.280358	0.003638
650	H	0.84383	0.30754	0.998877
651	H	0.834374	0.270013	0.973363
652	H	0.839706	0.274165	0.032959
653	C	0.802632	0.321926	0.041888
654	H	0.788411	0.326254	0.067878
655	H	0.812852	0.342898	0.0182
656	H	0.823461	0.322012	0.059656
657	C	0.707174	0.184981	0.335358
658	H	0.711702	0.173177	0.364331
659	H	0.707118	0.171811	0.304756
660	H	0.68193	0.181064	0.340347
661	C	0.692244	0.236974	0.301846
662	H	0.696129	0.256683	0.278001
663	H	0.672411	0.232983	0.325511
664	H	0.683391	0.214352	0.28143
665	C	0.736502	0.305172	0.007738
666	H	0.754552	0.329848	0.010699
667	C	0.77885	0.206368	0.335759
668	H	0.760954	0.181973	0.330358
669	C	0.730478	0.468429	0.006287
670	C	0.721306	0.493125	0.017515
671	C	0.744185	0.028005	0.009145
672	C	0.779354	0.039673	0.336924
673	C	0.789368	0.014764	0.332434
674	C	0.764556	0.48011	0.326658
675	C	0.730426	0.051353	0.003581
676	H	0.703244	0.038451	0.998827
677	H	0.740768	0.066526	0.973305
678	H	0.736623	0.067703	0.032905
679	C	0.688876	0.48288	0.041867
680	H	0.684559	0.464339	0.067867
681	H	0.667895	0.472118	0.018195
682	H	0.688793	0.503628	0.059627
683	C	0.825806	0.024355	0.335216
684	H	0.837626	0.040681	0.36419
685	H	0.838955	0.037476	0.304605
686	H	0.829729	0.003029	0.340172
687	C	0.77379	0.457424	0.301751
688	H	0.754062	0.441591	0.277936
689	H	0.777806	0.441594	0.325407
690	H	0.796393	0.471192	0.2813
691	C	0.705619	0.433493	0.007725
692	H	0.680945	0.426868	0.010706
693	C	0.804416	0.074643	0.33568
694	H	0.828814	0.081143	0.330301
695	C	0.542359	0.264222	0.006365
696	C	0.517667	0.230337	0.017527
697	C	0.982785	0.218348	0.009169
698	C	0.971112	0.241852	0.337048
699	C	0.996015	0.276782	0.332656
700	C	0.53067	0.286639	0.326859
701	C	0.959445	0.181252	0.00347
702	H	0.972352	0.166985	0.998628
703	H	0.94428	0.17648	0.973201
704	H	0.943086	0.171033	0.032777
705	C	0.527916	0.208103	0.041736
706	H	0.546457	0.222273	0.067758
707	H	0.538674	0.197933	0.017983
708	H	0.50717	0.187236	0.059446
709	C	0.986424	0.303622	0.335597
710	H	0.970078	0.299042	0.36457
711	H	0.973323	0.303727	0.305009
712	C	0.553362	0.318607	0.302054
713	H	0.569174	0.314749	0.278156
714	H	0.569212	0.338396	0.325765
715	H	0.539599	0.327505	0.281706
716	C	0.577297	0.274298	0.007774
717	H	0.583918	0.256243	0.010671
718	C	0.936142	0.231941	0.335808
719	H	0.929641	0.249842	0.330454
720	C	0.690112	0.318783	0.341597
721	C	0.6546	0.302364	0.341628
722	C	0.637301	0.320683	0.341634
723	C	0.656393	0.356194	0.341641
724	C	0.692011	0.373492	0.341611
725	C	0.708431	0.3544	0.341621
726	H	0.644015	0.369531	0.341231
727	H	0.734146	0.366778	0.341174
728	H	0.641263	0.276648	0.341217
729	N	0.704347	0.298956	0.340814
730	N	0.603241	0.30645	0.340861
731	N	0.711838	0.407554	0.340804
732	C	0.823777	0.190745	0.340215
733	C	0.859227	0.206226	0.340343
734	C	0.875592	0.187008	0.340205
735	C	0.855622	0.151557	0.340296
736	C	0.82004	0.135192	0.340175
737	C	0.804557	0.155161	0.340303
738	H	0.867326	0.137569	0.340306
739	H	0.778866	0.143459	0.340316
740	H	0.873214	0.231917	0.340377
741	N	0.810466	0.211392	0.339597
742	N	0.90955	0.200319	0.339597
743	N	0.799391	0.101235	0.33953
744	C	0.746577	0.28031	0.339657
745	C	0.780444	0.289487	0.35089
746	C	0.792441	0.2666	0.342545
747	C	0.768941	0.231431	0.670335
748	C	0.734019	0.221415	0.665853
749	C	0.724173	0.246224	0.660067
750	C	0.829548	0.280358	0.336971
751	H	0.84383	0.30754	0.332209
752	H	0.834374	0.270013	0.306695
753	H	0.839706	0.274165	0.366291
754	C	0.802632	0.321926	0.375221
755	H	0.788411	0.326254	0.401213
756	H	0.812852	0.342898	0.351532
757	H	0.823461	0.322012	0.392989
758	C	0.707174	0.184981	0.668691
759	H	0.711702	0.173177	0.697665
760	H	0.707118	0.171811	0.638089
761	H	0.68193	0.181064	0.67368
762	C	0.692244	0.236974	0.635178
763	H	0.696129	0.256683	0.611334
764	H	0.672411	0.232983	0.658843
765	H	0.683391	0.214352	0.614763
766	C	0.736502	0.305172	0.341069
767	H	0.754552	0.329848	0.344031
768	C	0.77885	0.206368	0.669091
769	H	0.760954	0.181973	0.663691
770	C	0.730478	0.468429	0.33962
771	C	0.721306	0.493125	0.35085
772	C	0.744185	0.028005	0.342478
773	C	0.779354	0.039673	0.670257
774	C	0.789368	0.014764	0.665766
775	C	0.764556	0.48011	0.65999
776	C	0.730426	0.051353	0.336914
777	H	0.703244	0.038451	0.332159
778	H	0.740768	0.066526	0.306639
779	H	0.736623	0.067703	0.366238
780	C	0.688876	0.48288	0.375201
781	H	0.684559	0.464339	0.4012
782	H	0.667895	0.472118	0.351529
783	H	0.688793	0.503628	0.392959
784	C	0.825806	0.024355	0.668549
785	H	0.837626	0.040681	0.697524
786	H	0.838955	0.037476	0.637938
787	H	0.829729	0.003029	0.673505
788	C	0.77379	0.457424	0.635084
789	H	0.754062	0.441591	0.61127
790	H	0.777806	0.441594	0.658739
791	H	0.796393	0.471192	0.614632
792	C	0.705619	0.433493	0.341059
793	H	0.680945	0.426868	0.344038
794	C	0.804416	0.074643	0.669013
795	H	0.828814	0.081143	0.663634
796	C	0.542359	0.264222	0.339698
797	C	0.517667	0.230337	0.35086
798	C	0.982785	0.218348	0.342502
799	C	0.971112	0.241852	0.670382
800	C	0.996015	0.276782	0.665988
801	C	0.53067	0.286639	0.660191
802	C	0.959445	0.181252	0.336803
803	H	0.972352	0.166985	0.33196
804	H	0.94428	0.17648	0.306535
805	H	0.943086	0.171033	0.36611
806	C	0.527916	0.208103	0.37507
807	H	0.546457	0.222273	0.401092
808	H	0.538674	0.197933	0.351317
809	H	0.50717	0.187236	0.392781
810	C	0.986424	0.303622	0.668929
811	H	0.970078	0.299042	0.697903
812	H	0.973323	0.303727	0.638341
813	C	0.553362	0.318607	0.635386
814	H	0.569174	0.314749	0.611489
815	H	0.569212	0.338396	0.659099
816	H	0.539599	0.327505	0.615039
817	C	0.577297	0.274298	0.341106
818	H	0.583918	0.256243	0.344004
819	C	0.936142	0.231941	0.669141
820	H	0.929641	0.249842	0.663789
821	C	0.690112	0.318783	0.674931
822	C	0.6546	0.302364	0.674961
823	C	0.637301	0.320683	0.674968
824	C	0.656393	0.356194	0.674974
825	C	0.692011	0.373492	0.674944
826	C	0.708431	0.3544	0.674954
827	H	0.644015	0.369531	0.674564
828	H	0.734146	0.366778	0.674507
829	H	0.641263	0.276648	0.674551
830	N	0.704347	0.298956	0.674144
831	N	0.603241	0.30645	0.674194
832	N	0.711838	0.407554	0.674137
833	C	0.823777	0.190745	0.673549
834	C	0.859227	0.206226	0.673677
835	C	0.875592	0.187008	0.673539
836	C	0.855622	0.151557	0.67363
837	C	0.82004	0.135192	0.673508
838	C	0.804557	0.155161	0.673636
839	H	0.867326	0.137569	0.67364
840	H	0.778866	0.143459	0.67365
841	H	0.873214	0.231917	0.67371
842	N	0.810466	0.211392	0.67293
843	N	0.90955	0.200319	0.67293
844	N	0.799391	0.101235	0.672863
845	C	0.746577	0.28031	0.672991
846	C	0.780444	0.289487	0.684223
847	C	0.792441	0.2666	0.675879
848	C	0.768941	0.231431	0.003668
849	C	0.734019	0.221415	0.999186
850	C	0.724173	0.246224	0.9934
851	C	0.829548	0.280358	0.670304
852	H	0.84383	0.30754	0.665544
853	H	0.834374	0.270013	0.640029
854	H	0.839706	0.274165	0.699625
855	C	0.802632	0.321926	0.708554
856	H	0.788411	0.326254	0.734546
857	H	0.812852	0.342898	0.684865
858	H	0.823461	0.322012	0.726323
859	C	0.707174	0.184981	0.002024
860	H	0.711702	0.173177	0.030999
861	H	0.707118	0.171811	0.971423
862	H	0.68193	0.181064	0.007014
863	C	0.692244	0.236974	0.968511
864	H	0.696129	0.256683	0.944668
865	H	0.672411	0.232983	0.992177
866	H	0.683391	0.214352	0.948097
867	C	0.736502	0.305172	0.674403
868	H	0.754552	0.329848	0.677365
869	C	0.77885	0.206368	0.002424
870	H	0.760954	0.181973	0.997025
871	C	0.730478	0.468429	0.672954
872	C	0.721306	0.493125	0.684183
873	C	0.744185	0.028005	0.675811
874	C	0.779354	0.039673	0.003591
875	C	0.789368	0.014764	0.999099
876	C	0.764556	0.48011	0.993323
877	C	0.730426	0.051353	0.670247
878	H	0.703244	0.038451	0.665493
879	H	0.740768	0.066526	0.639972
880	H	0.736623	0.067703	0.699571
881	C	0.688876	0.48288	0.708534
882	H	0.684559	0.464339	0.734533
883	H	0.667895	0.472118	0.684862
884	H	0.688793	0.503628	0.726293
885	C	0.825806	0.024355	0.001883
886	H	0.837626	0.040681	0.030856
887	H	0.838955	0.037476	0.971271
888	H	0.829729	0.003029	0.006839
889	C	0.77379	0.457424	0.968417
890	H	0.754062	0.441591	0.944604
891	H	0.777806	0.441594	0.992072
892	H	0.796393	0.471192	0.947966
893	C	0.705619	0.433493	0.674393
894	H	0.680945	0.426868	0.677371
895	C	0.804416	0.074643	0.002347
896	H	0.828814	0.081143	0.996968
897	C	0.542359	0.264222	0.673031
898	C	0.517667	0.230337	0.684193
899	C	0.982785	0.218348	0.675835
900	C	0.971112	0.241852	0.003715
901	C	0.996015	0.276782	0.999321
902	C	0.53067	0.286639	0.993525
903	C	0.959445	0.181252	0.670136
904	H	0.972352	0.166985	0.665295
905	H	0.94428	0.17648	0.639868
906	H	0.943086	0.171033	0.699443
907	C	0.527916	0.208103	0.708403
908	H	0.546457	0.222273	0.734425
909	H	0.538674	0.197933	0.68465
910	H	0.50717	0.187236	0.726114
911	C	0.986424	0.303622	0.002263
912	H	0.970078	0.299042	0.031238
913	H	0.973323	0.303727	0.971675
914	C	0.553362	0.318607	0.96872
915	H	0.569174	0.314749	0.944822
916	H	0.569212	0.338396	0.992432
917	H	0.539599	0.327505	0.948372
918	C	0.577297	0.274298	0.67444
919	H	0.583918	0.256243	0.677338
920	C	0.936142	0.231941	0.002475
921	H	0.929641	0.249842	0.997122
922	C	0.690112	0.818785	0.008265
923	C	0.654599	0.802363	0.008295
924	C	0.637302	0.820682	0.008301
925	C	0.656394	0.856194	0.008306
926	C	0.692013	0.873494	0.008278
927	C	0.708433	0.854402	0.008286
928	H	0.644015	0.869531	0.007897
929	H	0.734146	0.86678	0.007841
930	H	0.641262	0.776648	0.007885
931	N	0.704347	0.798958	0.007479
932	N	0.603241	0.80645	0.007528
933	N	0.711836	0.907554	0.007471
934	C	0.823776	0.690745	0.006881
935	C	0.859228	0.706226	0.007009
936	C	0.875594	0.687008	0.006874
937	C	0.855623	0.651557	0.006963
938	C	0.820039	0.635193	0.006842
939	C	0.804558	0.655161	0.00697
940	H	0.867325	0.637569	0.006972
941	H	0.778867	0.64346	0.006982
942	H	0.873215	0.731916	0.007044
943	N	0.810467	0.711392	0.006262
944	N	0.90955	0.700318	0.006262
945	N	0.799392	0.601234	0.006196
946	C	0.746575	0.780309	0.006325
947	C	0.780445	0.789486	0.017556
948	C	0.792441	0.7666	0.009213
949	C	0.768942	0.731431	0.337001
950	C	0.73402	0.721415	0.332521
951	C	0.724174	0.746224	0.326733
952	C	0.829549	0.780357	0.003638
953	H	0.843831	0.807539	0.998877
954	H	0.834375	0.770012	0.973363
955	H	0.839707	0.774164	0.032959
956	C	0.802633	0.821925	0.041888
957	H	0.788413	0.826256	0.067878
958	H	0.812853	0.842897	0.0182
959	H	0.823463	0.822014	0.059656
960	C	0.707174	0.68498	0.335358
961	H	0.711701	0.673178	0.364331
962	H	0.707119	0.671812	0.304756
963	H	0.681929	0.681065	0.340347
964	C	0.692245	0.736974	0.301846
965	H	0.696131	0.756685	0.278001
966	H	0.67241	0.732983	0.325511
967	H	0.683392	0.714352	0.28143
968	C	0.736501	0.805171	0.007738
969	H	0.754553	0.829847	0.010699
970	C	0.77885	0.70637	0.335759
971	H	0.760955	0.681973	0.330358
972	C	0.730477	0.968428	0.006287
973	C	0.721307	0.993124	0.017515
974	C	0.744186	0.528004	0.009145
975	C	0.779355	0.539673	0.336924
976	C	0.789368	0.514763	0.332434
977	C	0.764557	0.980109	0.326658
978	C	0.730427	0.551352	0.003581
979	H	0.703246	0.538453	0.998827
980	H	0.740767	0.566526	0.973305
981	H	0.736624	0.567703	0.032905
982	C	0.688876	0.98288	0.041867
983	H	0.684558	0.964339	0.067867
984	H	0.667894	0.972117	0.018195
985	H	0.688794	0.003627	0.059627
986	C	0.825805	0.524356	0.335216
987	H	0.837628	0.540682	0.36419
988	H	0.838954	0.537476	0.304605
989	H	0.829728	0.503029	0.340172
990	C	0.773792	0.957426	0.301751
991	H	0.754062	0.941591	0.277936
992	H	0.777807	0.941593	0.325407
993	H	0.796395	0.971193	0.2813
994	C	0.705619	0.933493	0.007725
995	H	0.680946	0.92687	0.010706
996	C	0.804418	0.574643	0.33568
997	H	0.828813	0.581143	0.330301
998	C	0.542359	0.764222	0.006365
999	C	0.517667	0.730338	0.017527
1000	C	0.982786	0.718348	0.009169
1001	C	0.971111	0.741851	0.337048
1002	C	0.996017	0.776784	0.332656
1003	C	0.530669	0.786638	0.326859
1004	C	0.959446	0.681251	0.00347
1005	H	0.972353	0.666985	0.998628
1006	H	0.944281	0.67648	0.973201
1007	H	0.943087	0.671032	0.032777
1008	C	0.527915	0.708103	0.041736
1009	H	0.546457	0.722273	0.067758
1010	H	0.538675	0.697932	0.017983
1011	H	0.507169	0.687235	0.059446
1012	C	0.986423	0.803621	0.335597
1013	H	0.970077	0.799041	0.36457
1014	H	0.973323	0.803729	0.305009
1015	C	0.553361	0.818606	0.302054
1016	H	0.569174	0.814749	0.278156
1017	H	0.569213	0.838398	0.325765
1018	H	0.539599	0.827504	0.281706
1019	C	0.577296	0.774297	0.007774
1020	H	0.583918	0.756242	0.010671
1021	C	0.936143	0.731941	0.335808
1022	H	0.929643	0.749843	0.330454
1023	C	0.690112	0.818785	0.341597
1024	C	0.654599	0.802363	0.341628
1025	C	0.637302	0.820682	0.341634
1026	C	0.656394	0.856194	0.341641
1027	C	0.692013	0.873494	0.341611
1028	C	0.708433	0.854402	0.341621
1029	H	0.644015	0.869531	0.341231
1030	H	0.734146	0.86678	0.341174
1031	H	0.641262	0.776648	0.341217
1032	N	0.704347	0.798958	0.340814
1033	N	0.603241	0.80645	0.340861
1034	N	0.711836	0.907554	0.340804
1035	C	0.823776	0.690745	0.340215
1036	C	0.859228	0.706226	0.340343
1037	C	0.875594	0.687008	0.340205
1038	C	0.855623	0.651557	0.340296
1039	C	0.820039	0.635193	0.340175
1040	C	0.804558	0.655161	0.340303
1041	H	0.867325	0.637569	0.340306
1042	H	0.778867	0.64346	0.340316
1043	H	0.873215	0.731916	0.340377
1044	N	0.810467	0.711392	0.339597
1045	N	0.90955	0.700318	0.339597
1046	N	0.799392	0.601234	0.33953
1047	C	0.746575	0.780309	0.339657
1048	C	0.780445	0.789486	0.35089
1049	C	0.792441	0.7666	0.342545
1050	C	0.768942	0.731431	0.670335
1051	C	0.73402	0.721415	0.665853
1052	C	0.724174	0.746224	0.660067
1053	C	0.829549	0.780357	0.336971
1054	H	0.843831	0.807539	0.332209
1055	H	0.834375	0.770012	0.306695
1056	H	0.839707	0.774164	0.366291
1057	C	0.802633	0.821925	0.375221
1058	H	0.788413	0.826256	0.401213
1059	H	0.812853	0.842897	0.351532
1060	H	0.823463	0.822014	0.392989
1061	C	0.707174	0.68498	0.668691
1062	H	0.711701	0.673178	0.697665
1063	H	0.707119	0.671812	0.638089
1064	H	0.681929	0.681065	0.67368
1065	C	0.692245	0.736974	0.635178
1066	H	0.696131	0.756685	0.611334
1067	H	0.67241	0.732983	0.658843
1068	H	0.683392	0.714352	0.614763
1069	C	0.736501	0.805171	0.341069
1070	H	0.754553	0.829847	0.344031
1071	C	0.77885	0.70637	0.669091
1072	H	0.760955	0.681973	0.663691
1073	C	0.730477	0.968428	0.33962
1074	C	0.721307	0.993124	0.35085
1075	C	0.744186	0.528004	0.342478
1076	C	0.779355	0.539673	0.670257
1077	C	0.789368	0.514763	0.665766
1078	C	0.764557	0.980109	0.65999
1079	C	0.730427	0.551352	0.336914
1080	H	0.703246	0.538453	0.332159
1081	H	0.740767	0.566526	0.306639
1082	H	0.736624	0.567703	0.366238
1083	C	0.688876	0.98288	0.375201
1084	H	0.684558	0.964339	0.4012
1085	H	0.667894	0.972117	0.351529
1086	H	0.688794	0.003627	0.392959
1087	C	0.825805	0.524356	0.668549
1088	H	0.837628	0.540682	0.697524
1089	H	0.838954	0.537476	0.637938
1090	H	0.829728	0.503029	0.673505
1091	C	0.773792	0.957426	0.635084
1092	H	0.754062	0.941591	0.61127
1093	H	0.777807	0.941593	0.658739
1094	H	0.796395	0.971193	0.614632
1095	C	0.705619	0.933493	0.341059
1096	H	0.680946	0.92687	0.344038
1097	C	0.804418	0.574643	0.669013
1098	H	0.828813	0.581143	0.663634
1099	C	0.542359	0.764222	0.339698
1100	C	0.517667	0.730338	0.35086
1101	C	0.982786	0.718348	0.342502
1102	C	0.971111	0.741851	0.670382
1103	C	0.996017	0.776784	0.665988
1104	C	0.530669	0.786638	0.660191
1105	C	0.959446	0.681251	0.336803
1106	H	0.972353	0.666985	0.33196
1107	H	0.944281	0.67648	0.306535
1108	H	0.943087	0.671032	0.36611
1109	C	0.527915	0.708103	0.37507
1110	H	0.546457	0.722273	0.401092
1111	H	0.538675	0.697932	0.351317
1112	H	0.507169	0.687235	0.392781
1113	C	0.986423	0.803621	0.668929
1114	H	0.970077	0.799041	0.697903
1115	H	0.973323	0.803729	0.638341
1116	C	0.553361	0.818606	0.635386
1117	H	0.569174	0.814749	0.611489
1118	H	0.569213	0.838398	0.659099
1119	H	0.539599	0.827504	0.615039
1120	C	0.577296	0.774297	0.341106
1121	H	0.583918	0.756242	0.344004
1122	C	0.936143	0.731941	0.669141
1123	H	0.929643	0.749843	0.663789
1124	C	0.690112	0.818785	0.674931
1125	C	0.654599	0.802363	0.674961
1126	C	0.637302	0.820682	0.674968
1127	C	0.656394	0.856194	0.674974
1128	C	0.692013	0.873494	0.674944
1129	C	0.708433	0.854402	0.674954
1130	H	0.644015	0.869531	0.674564
1131	H	0.734146	0.86678	0.674507
1132	H	0.641262	0.776648	0.674551
1133	N	0.704347	0.798958	0.674144
1134	N	0.603241	0.80645	0.674194
1135	N	0.711836	0.907554	0.674137
1136	C	0.823776	0.690745	0.673549
1137	C	0.859228	0.706226	0.673677
1138	C	0.875594	0.687008	0.673539
1139	C	0.855623	0.651557	0.67363
1140	C	0.820039	0.635193	0.673508
1141	C	0.804558	0.655161	0.673636
1142	H	0.867325	0.637569	0.67364
1143	H	0.778867	0.64346	0.67365
1144	H	0.873215	0.731916	0.67371
1145	N	0.810467	0.711392	0.67293
1146	N	0.90955	0.700318	0.67293
1147	N	0.799392	0.601234	0.672863
1148	C	0.746575	0.780309	0.672991
1149	C	0.780445	0.789486	0.684223
1150	C	0.792441	0.7666	0.675879
1151	C	0.768942	0.731431	0.003668
1152	C	0.73402	0.721415	0.999186
1153	C	0.724174	0.746224	0.9934
1154	C	0.829549	0.780357	0.670304
1155	H	0.843831	0.807539	0.665544
1156	H	0.834375	0.770012	0.640029
1157	H	0.839707	0.774164	0.699625
1158	C	0.802633	0.821925	0.708554
1159	H	0.788413	0.826256	0.734546
1160	H	0.812853	0.842897	0.684865
1161	H	0.823463	0.822014	0.726323
1162	C	0.707174	0.68498	0.002024
1163	H	0.711701	0.673178	0.030999
1164	H	0.707119	0.671812	0.971423
1165	H	0.681929	0.681065	0.007014
1166	C	0.692245	0.736974	0.968511
1167	H	0.696131	0.756685	0.944668
1168	H	0.67241	0.732983	0.992177
1169	H	0.683392	0.714352	0.948097
1170	C	0.736501	0.805171	0.674403
1171	H	0.754553	0.829847	0.677365
1172	C	0.77885	0.70637	0.002424
1173	H	0.760955	0.681973	0.997025
1174	C	0.730477	0.968428	0.672954
1175	C	0.721307	0.993124	0.684183
1176	C	0.744186	0.528004	0.675811
1177	C	0.779355	0.539673	0.003591
1178	C	0.789368	0.514763	0.999099
1179	C	0.764557	0.980109	0.993323
1180	C	0.730427	0.551352	0.670247
1181	H	0.703246	0.538453	0.665493
1182	H	0.740767	0.566526	0.639972
1183	H	0.736624	0.567703	0.699571
1184	C	0.688876	0.98288	0.708534
1185	H	0.684558	0.964339	0.734533
1186	H	0.667894	0.972117	0.684862
1187	H	0.688794	0.003627	0.726293
1188	C	0.825805	0.524356	0.001883
1189	H	0.837628	0.540682	0.030856
1190	H	0.838954	0.537476	0.971271
1191	H	0.829728	0.503029	0.006839
1192	C	0.773792	0.957426	0.968417
1193	H	0.754062	0.941591	0.944604
1194	H	0.777807	0.941593	0.992072
1195	H	0.796395	0.971193	0.947966
1196	C	0.705619	0.933493	0.674393
1197	H	0.680946	0.92687	0.677371
1198	C	0.804418	0.574643	0.002347
1199	H	0.828813	0.581143	0.996968
1200	C	0.542359	0.764222	0.673031
1201	C	0.517667	0.730338	0.684193
1202	C	0.982786	0.718348	0.675835
1203	C	0.971111	0.741851	0.003715
1204	C	0.996017	0.776784	0.999321
1205	C	0.530669	0.786638	0.993525
1206	C	0.959446	0.681251	0.670136
1207	H	0.972353	0.666985	0.665295
1208	H	0.944281	0.67648	0.639868
1209	H	0.943087	0.671032	0.699443
1210	C	0.527915	0.708103	0.708403
1211	H	0.546457	0.722273	0.734425
1212	H	0.538675	0.697932	0.68465
1213	H	0.507169	0.687235	0.726114
1214	C	0.986423	0.803621	0.002263
1215	H	0.970077	0.799041	0.031238
1216	H	0.973323	0.803729	0.971675
1217	C	0.553361	0.818606	0.96872
1218	H	0.569174	0.814749	0.944822
1219	H	0.569213	0.838398	0.992432
1220	H	0.539599	0.827504	0.948372
1221	C	0.577296	0.774297	0.67444
1222	H	0.583918	0.756242	0.677338
1223	C	0.936143	0.731941	0.002475
1224	H	0.929643	0.749843	0.997122
