data_C432H360N144_2018-02-15_10:45:03
#******************************************
#
# CIF file created by Zeo++
# Zeo++ is an open source package to
# analyze microporous materials
#
#*******************************************

_cell_length_a		45.391   
_cell_length_b		45.391   
_cell_length_c		29.2076   
_cell_angle_alpha		90   
_cell_angle_beta		90   
_cell_angle_gamma		120   

_symmetry_space_group_name_H-M		'P1'
_symmetry_Int_Tables_number		1
_symmetry_cell_setting		Monoclinic

loop_
_symmetry_equiv_pos_as_xyz
'+x,+y,+z'

loop_
_atom_site_label
_atom_site_type_symbol
_atom_site_fract_x
_atom_site_fract_y
_atom_site_fract_z
1	C	0.197026	0.381065	0.013797
2	N	0.163392	0.356644	0.013819
3	C	0.152844	0.322741	0.013798
4	N	0.177267	0.31353	0.013819
5	C	0.211168	0.336885	0.013798
6	N	0.22038	0.370518	0.013818
7	C	0.236569	0.327577	0.014062
8	C	0.206332	0.415772	0.014059
9	C	0.118137	0.297341	0.014063
10	H	0.1126	0.272583	0.014684
11	H	0.187112	0.42131	0.014684
12	H	0.261326	0.346799	0.014682
13	H	0.279367	0.18033	0.013619
14	C	0.290808	0.247263	0.014764
15	C	0.285823	0.298829	0.016684
16	C	0.249884	0.279864	0.346868
17	C	0.234362	0.243819	0.344263
18	C	0.25487	0.2283	0.344954
19	H	0.243124	0.202387	0.342835
20	C	0.196904	0.220888	0.340365
21	H	0.182699	0.23442	0.339946
22	H	0.187756	0.203313	0.369297
23	H	0.191066	0.206182	0.308742
24	N	0.230133	0.294891	0.34641
25	C	0.286647	0.050326	0.014764
26	C	0.2506	0.029803	0.017374
27	C	0.235082	0.493775	0.016682
28	C	0.254045	0.476802	0.346865
29	C	0.290092	0.497326	0.344256
30	H	0.209169	0.479608	0.018806
31	C	0.227671	0.044331	0.021281
32	H	0.241202	0.072066	0.0217
33	H	0.212968	0.035462	0.052906
34	H	0.210093	0.035904	0.992354
35	N	0.23902	0.442025	0.346403
36	C	0.040134	0.248088	0.016682
37	C	0.057109	0.284026	0.346868
38	C	0.036585	0.299549	0.344263
39	H	0.054301	0.236342	0.018799
40	C	0.051112	0.337005	0.340363
41	H	0.078848	0.35121	0.339947
42	H	0.042684	0.346155	0.369294
43	H	0.042246	0.342843	0.308738
44	N	0.091886	0.303777	0.34641
45	C	0.197026	0.381065	0.347132
46	N	0.163392	0.356644	0.347153
47	C	0.152844	0.322741	0.347132
48	N	0.177267	0.31353	0.347153
49	C	0.211168	0.336885	0.347132
50	N	0.22038	0.370518	0.347153
51	C	0.236569	0.327577	0.347396
52	C	0.206332	0.415772	0.347392
53	C	0.118137	0.297341	0.347396
54	H	0.1126	0.272583	0.348019
55	H	0.187112	0.42131	0.348019
56	H	0.261326	0.346799	0.348015
57	H	0.279367	0.18033	0.346954
58	C	0.290808	0.247263	0.348097
59	C	0.285823	0.298829	0.350018
60	C	0.249884	0.279864	0.680203
61	C	0.234362	0.243819	0.677597
62	C	0.25487	0.2283	0.678289
63	H	0.243124	0.202387	0.676169
64	C	0.196904	0.220888	0.673697
65	H	0.182699	0.23442	0.67328
66	H	0.187756	0.203313	0.702632
67	H	0.191066	0.206182	0.642076
68	N	0.230133	0.294891	0.67974
69	C	0.286647	0.050326	0.348097
70	C	0.2506	0.029803	0.350706
71	C	0.235082	0.493775	0.350015
72	C	0.254045	0.476802	0.680199
73	C	0.290092	0.497326	0.677587
74	H	0.209169	0.479608	0.352141
75	C	0.227671	0.044331	0.354613
76	H	0.241202	0.072066	0.355034
77	H	0.212968	0.035462	0.386238
78	H	0.210093	0.035904	0.325686
79	N	0.23902	0.442025	0.679737
80	C	0.040134	0.248088	0.350015
81	C	0.057109	0.284026	0.680203
82	C	0.036585	0.299549	0.677597
83	H	0.054301	0.236342	0.352134
84	C	0.051112	0.337005	0.673697
85	H	0.078848	0.35121	0.67328
86	H	0.042684	0.346155	0.702625
87	H	0.042246	0.342843	0.642072
88	N	0.091886	0.303777	0.679744
89	C	0.197026	0.381065	0.680463
90	N	0.163392	0.356644	0.680487
91	C	0.152844	0.322741	0.680466
92	N	0.177267	0.31353	0.680487
93	C	0.211168	0.336885	0.680466
94	N	0.22038	0.370518	0.680483
95	C	0.236569	0.327577	0.68073
96	C	0.206332	0.415772	0.680726
97	C	0.118137	0.297341	0.68073
98	H	0.1126	0.272583	0.681353
99	H	0.187112	0.42131	0.681349
100	H	0.261326	0.346799	0.681349
101	H	0.279367	0.18033	0.680288
102	C	0.290808	0.247263	0.681432
103	C	0.285823	0.298829	0.683352
104	C	0.249884	0.279864	0.013537
105	C	0.234362	0.243819	0.010931
106	C	0.25487	0.2283	0.011623
107	H	0.243124	0.202387	0.009504
108	C	0.196904	0.220888	0.007032
109	H	0.182699	0.23442	0.006614
110	H	0.187756	0.203313	0.035963
111	H	0.191066	0.206182	0.97541
112	N	0.230133	0.294891	0.013075
113	C	0.286647	0.050326	0.681432
114	C	0.2506	0.029803	0.684041
115	C	0.235082	0.493775	0.683349
116	C	0.254045	0.476802	0.013533
117	C	0.290092	0.497326	0.010921
118	H	0.209169	0.479608	0.685472
119	C	0.227671	0.044331	0.687947
120	H	0.241202	0.072066	0.688368
121	H	0.212968	0.035462	0.719572
122	H	0.210093	0.035904	0.65902
123	N	0.23902	0.442025	0.013071
124	C	0.040134	0.248088	0.683349
125	C	0.057109	0.284026	0.013537
126	C	0.036585	0.299549	0.010931
127	H	0.054301	0.236342	0.685465
128	C	0.051112	0.337005	0.007032
129	H	0.078848	0.35121	0.006614
130	H	0.042684	0.346155	0.035959
131	H	0.042246	0.342843	0.975406
132	N	0.091886	0.303777	0.013075
133	C	0.197026	0.881065	0.013797
134	N	0.163389	0.856641	0.013819
135	C	0.152844	0.822741	0.013798
136	N	0.177268	0.81353	0.013819
137	C	0.211168	0.836886	0.013798
138	N	0.22038	0.870518	0.013818
139	C	0.236569	0.827577	0.014062
140	C	0.206332	0.915772	0.014059
141	C	0.118137	0.797341	0.014063
142	H	0.112601	0.772583	0.014684
143	H	0.187112	0.92131	0.014684
144	H	0.261325	0.846797	0.014682
145	H	0.279366	0.680329	0.013619
146	C	0.290808	0.747264	0.014764
147	C	0.285822	0.798826	0.016684
148	C	0.249884	0.779864	0.346868
149	C	0.234361	0.743817	0.344263
150	C	0.254869	0.728299	0.344954
151	H	0.243124	0.702387	0.342835
152	C	0.196904	0.720889	0.340365
153	H	0.1827	0.73442	0.339946
154	H	0.187756	0.703313	0.369297
155	H	0.191067	0.706183	0.308742
156	N	0.230133	0.794891	0.34641
157	C	0.286647	0.550326	0.014764
158	C	0.2506	0.529802	0.017374
159	C	0.235082	0.993775	0.016682
160	C	0.254046	0.976802	0.346865
161	C	0.29009	0.997324	0.344256
162	H	0.209169	0.979608	0.018806
163	C	0.22767	0.54433	0.021281
164	H	0.241202	0.572066	0.0217
165	H	0.212968	0.535462	0.052906
166	H	0.210093	0.535905	0.992354
167	N	0.239019	0.942025	0.346403
168	C	0.040134	0.748088	0.016682
169	C	0.05711	0.784026	0.346868
170	C	0.036586	0.799549	0.344263
171	H	0.0543	0.736341	0.018799
172	C	0.051113	0.837005	0.340363
173	H	0.078849	0.85121	0.339947
174	H	0.042684	0.846153	0.369294
175	H	0.042245	0.842843	0.308738
176	N	0.091886	0.803777	0.34641
177	C	0.197026	0.881065	0.347132
178	N	0.163389	0.856641	0.347153
179	C	0.152844	0.822741	0.347132
180	N	0.177268	0.81353	0.347153
181	C	0.211168	0.836886	0.347132
182	N	0.22038	0.870518	0.347153
183	C	0.236569	0.827577	0.347396
184	C	0.206332	0.915772	0.347392
185	C	0.118137	0.797341	0.347396
186	H	0.112601	0.772583	0.348019
187	H	0.187112	0.92131	0.348019
188	H	0.261325	0.846797	0.348015
189	H	0.279366	0.680329	0.346954
190	C	0.290808	0.747264	0.348097
191	C	0.285822	0.798826	0.350018
192	C	0.249884	0.779864	0.680203
193	C	0.234361	0.743817	0.677597
194	C	0.254869	0.728299	0.678289
195	H	0.243124	0.702387	0.676169
196	C	0.196904	0.720889	0.673697
197	H	0.1827	0.73442	0.67328
198	H	0.187756	0.703313	0.702632
199	H	0.191067	0.706183	0.642076
200	N	0.230133	0.794891	0.67974
201	C	0.286647	0.550326	0.348097
202	C	0.2506	0.529802	0.350706
203	C	0.235082	0.993775	0.350015
204	C	0.254046	0.976802	0.680199
205	C	0.29009	0.997324	0.677587
206	H	0.209169	0.979608	0.352141
207	C	0.22767	0.54433	0.354613
208	H	0.241202	0.572066	0.355034
209	H	0.212968	0.535462	0.386238
210	H	0.210093	0.535905	0.325686
211	N	0.239019	0.942025	0.679737
212	C	0.040134	0.748088	0.350015
213	C	0.05711	0.784026	0.680203
214	C	0.036586	0.799549	0.677597
215	H	0.0543	0.736341	0.352134
216	C	0.051113	0.837005	0.673697
217	H	0.078849	0.85121	0.67328
218	H	0.042684	0.846153	0.702625
219	H	0.042245	0.842843	0.642072
220	N	0.091886	0.803777	0.679744
221	C	0.197026	0.881065	0.680463
222	N	0.163389	0.856641	0.680487
223	C	0.152844	0.822741	0.680466
224	N	0.177268	0.81353	0.680487
225	C	0.211168	0.836886	0.680466
226	N	0.22038	0.870518	0.680483
227	C	0.236569	0.827577	0.68073
228	C	0.206332	0.915772	0.680726
229	C	0.118137	0.797341	0.68073
230	H	0.112601	0.772583	0.681353
231	H	0.187112	0.92131	0.681349
232	H	0.261325	0.846797	0.681349
233	H	0.279366	0.680329	0.680288
234	C	0.290808	0.747264	0.681432
235	C	0.285822	0.798826	0.683352
236	C	0.249884	0.779864	0.013537
237	C	0.234361	0.743817	0.010931
238	C	0.254869	0.728299	0.011623
239	H	0.243124	0.702387	0.009504
240	C	0.196904	0.720889	0.007032
241	H	0.1827	0.73442	0.006614
242	H	0.187756	0.703313	0.035963
243	H	0.191067	0.706183	0.97541
244	N	0.230133	0.794891	0.013075
245	C	0.286647	0.550326	0.681432
246	C	0.2506	0.529802	0.684041
247	C	0.235082	0.993775	0.683349
248	C	0.254046	0.976802	0.013533
249	C	0.29009	0.997324	0.010921
250	H	0.209169	0.979608	0.685472
251	C	0.22767	0.54433	0.687947
252	H	0.241202	0.572066	0.688368
253	H	0.212968	0.535462	0.719572
254	H	0.210093	0.535905	0.65902
255	N	0.239019	0.942025	0.013071
256	C	0.040134	0.748088	0.683349
257	C	0.05711	0.784026	0.013537
258	C	0.036586	0.799549	0.010931
259	H	0.0543	0.736341	0.685465
260	C	0.051113	0.837005	0.007032
261	H	0.078849	0.85121	0.006614
262	H	0.042684	0.846153	0.035959
263	H	0.042245	0.842843	0.975406
264	N	0.091886	0.803777	0.013075
265	C	0.343667	0.146063	0.014502
266	N	0.3773	0.170485	0.014479
267	C	0.387847	0.204386	0.014497
268	N	0.363425	0.213598	0.014477
269	C	0.329525	0.190243	0.0145
270	N	0.320313	0.156609	0.014481
271	C	0.304124	0.199551	0.014238
272	C	0.334361	0.111355	0.01424
273	C	0.422556	0.229786	0.014234
274	H	0.428092	0.254545	0.013613
275	H	0.353581	0.105819	0.013614
276	C	0.30633	0.283309	0.017369
277	H	0.297568	0.324741	0.018795
278	C	0.343788	0.306239	0.021265
279	H	0.357993	0.292708	0.021681
280	H	0.349628	0.320945	0.052889
281	H	0.352935	0.323815	0.992333
282	N	0.31056	0.232238	0.015224
283	C	0.30561	0.033351	0.344948
284	H	0.331523	0.047519	0.342825
285	C	0.313022	0.482798	0.340355
286	H	0.29949	0.455062	0.339935
287	H	0.330596	0.491224	0.369287
288	H	0.327727	0.491666	0.308731
289	N	0.301674	0.085104	0.015227
290	C	0.483583	0.243102	0.014762
291	H	0.48639	0.290785	0.342832
292	C	0.48958	0.190122	0.021268
293	H	0.461843	0.175917	0.021685
294	N	0.448806	0.22335	0.015223
295	C	0.343667	0.146063	0.347834
296	N	0.3773	0.170485	0.347813
297	C	0.387847	0.204386	0.34783
298	N	0.363425	0.213598	0.34781
299	C	0.329525	0.190243	0.347834
300	N	0.320313	0.156609	0.347813
301	C	0.304124	0.199551	0.34757
302	C	0.334361	0.111355	0.347574
303	C	0.422556	0.229786	0.347567
304	H	0.428092	0.254545	0.346947
305	H	0.353581	0.105819	0.346947
306	C	0.30633	0.283309	0.350703
307	H	0.297568	0.324741	0.352131
308	C	0.343788	0.306239	0.354599
309	H	0.357993	0.292708	0.355013
310	H	0.349628	0.320945	0.386221
311	H	0.352935	0.323815	0.325668
312	N	0.31056	0.232238	0.348556
313	C	0.30561	0.033351	0.678282
314	H	0.331523	0.047519	0.676159
315	C	0.313022	0.482798	0.673687
316	H	0.29949	0.455062	0.673269
317	H	0.330596	0.491224	0.702618
318	H	0.327727	0.491666	0.642065
319	N	0.301674	0.085104	0.34856
320	C	0.483583	0.243102	0.348097
321	H	0.48639	0.290785	0.676166
322	C	0.48958	0.190122	0.354603
323	H	0.461843	0.175917	0.355017
324	N	0.448806	0.22335	0.348556
325	C	0.343667	0.146063	0.681168
326	N	0.3773	0.170485	0.681144
327	C	0.387847	0.204386	0.681165
328	N	0.363425	0.213598	0.681144
329	C	0.329525	0.190243	0.681168
330	N	0.320313	0.156609	0.681147
331	C	0.304124	0.199551	0.680904
332	C	0.334361	0.111355	0.680908
333	C	0.422556	0.229786	0.680901
334	H	0.428092	0.254545	0.680281
335	H	0.353581	0.105819	0.680281
336	C	0.30633	0.283309	0.684037
337	H	0.297568	0.324741	0.685461
338	C	0.343788	0.306239	0.687933
339	H	0.357993	0.292708	0.688348
340	H	0.349628	0.320945	0.719555
341	H	0.352935	0.323815	0.659003
342	N	0.31056	0.232238	0.68189
343	C	0.30561	0.033351	0.011616
344	H	0.331523	0.047519	0.009493
345	C	0.313022	0.482798	0.007021
346	H	0.29949	0.455062	0.0066
347	H	0.330596	0.491224	0.035952
348	H	0.327727	0.491666	0.975399
349	N	0.301674	0.085104	0.681894
350	C	0.483583	0.243102	0.681428
351	H	0.48639	0.290785	0.0095
352	C	0.48958	0.190122	0.687933
353	H	0.461843	0.175917	0.688351
354	N	0.448806	0.22335	0.68189
355	C	0.343667	0.646063	0.014502
356	N	0.377301	0.670484	0.014479
357	C	0.387848	0.704387	0.014497
358	N	0.363425	0.713598	0.014477
359	C	0.329524	0.690243	0.0145
360	N	0.320313	0.65661	0.014481
361	C	0.304124	0.699551	0.014238
362	C	0.334359	0.611354	0.01424
363	C	0.422554	0.729785	0.014234
364	H	0.428091	0.754542	0.013613
365	H	0.35358	0.605818	0.013614
366	C	0.30633	0.783309	0.017369
367	H	0.297568	0.824741	0.018795
368	C	0.343788	0.806239	0.021265
369	H	0.357993	0.792708	0.021681
370	H	0.349628	0.820945	0.052889
371	H	0.352935	0.823815	0.992333
372	N	0.31056	0.732237	0.015224
373	C	0.305609	0.53335	0.344948
374	H	0.331524	0.54752	0.342825
375	C	0.313022	0.982798	0.340355
376	H	0.29949	0.955062	0.339935
377	H	0.330596	0.991224	0.369287
378	H	0.327727	0.991666	0.308731
379	N	0.301672	0.585103	0.015227
380	C	0.483584	0.743102	0.014762
381	H	0.486391	0.790785	0.342832
382	C	0.489579	0.690121	0.021268
383	H	0.461844	0.675918	0.021685
384	N	0.448806	0.723351	0.015223
385	C	0.343667	0.646063	0.347834
386	N	0.377301	0.670484	0.347813
387	C	0.387848	0.704387	0.34783
388	N	0.363425	0.713598	0.34781
389	C	0.329524	0.690243	0.347834
390	N	0.320313	0.65661	0.347813
391	C	0.304124	0.699551	0.34757
392	C	0.334359	0.611354	0.347574
393	C	0.422554	0.729785	0.347567
394	H	0.428091	0.754542	0.346947
395	H	0.35358	0.605818	0.346947
396	C	0.30633	0.783309	0.350703
397	H	0.297568	0.824741	0.352131
398	C	0.343788	0.806239	0.354599
399	H	0.357993	0.792708	0.355013
400	H	0.349628	0.820945	0.386221
401	H	0.352935	0.823815	0.325668
402	N	0.31056	0.732237	0.348556
403	C	0.305609	0.53335	0.678282
404	H	0.331524	0.54752	0.676159
405	C	0.313022	0.982798	0.673687
406	H	0.29949	0.955062	0.673269
407	H	0.330596	0.991224	0.702618
408	H	0.327727	0.991666	0.642065
409	N	0.301672	0.585103	0.34856
410	C	0.483584	0.743102	0.348097
411	H	0.486391	0.790785	0.676166
412	C	0.489579	0.690121	0.354603
413	H	0.461844	0.675918	0.355017
414	N	0.448806	0.723351	0.348556
415	C	0.343667	0.646063	0.681168
416	N	0.377301	0.670484	0.681144
417	C	0.387848	0.704387	0.681165
418	N	0.363425	0.713598	0.681144
419	C	0.329524	0.690243	0.681168
420	N	0.320313	0.65661	0.681147
421	C	0.304124	0.699551	0.680904
422	C	0.334359	0.611354	0.680908
423	C	0.422554	0.729785	0.680901
424	H	0.428091	0.754542	0.680281
425	H	0.35358	0.605818	0.680281
426	C	0.30633	0.783309	0.684037
427	H	0.297568	0.824741	0.685461
428	C	0.343788	0.806239	0.687933
429	H	0.357993	0.792708	0.688348
430	H	0.349628	0.820945	0.719555
431	H	0.352935	0.823815	0.659003
432	N	0.31056	0.732237	0.68189
433	C	0.305609	0.53335	0.011616
434	H	0.331524	0.54752	0.009493
435	C	0.313022	0.982798	0.007021
436	H	0.29949	0.955062	0.0066
437	H	0.330596	0.991224	0.035952
438	H	0.327727	0.991666	0.975399
439	N	0.301672	0.585103	0.681894
440	C	0.483584	0.743102	0.681428
441	H	0.486391	0.790785	0.0095
442	C	0.489579	0.690121	0.687933
443	H	0.461844	0.675918	0.688351
444	N	0.448806	0.723351	0.68189
445	C	0.504107	0.22758	0.01737
446	C	0.500558	0.27904	0.344948
447	H	0.498447	0.184284	0.052891
448	H	0.498008	0.180974	0.992337
449	C	0.504107	0.22758	0.350703
450	C	0.500558	0.27904	0.678282
451	H	0.498447	0.184284	0.386225
452	H	0.498008	0.180974	0.32567
453	C	0.504107	0.22758	0.684037
454	C	0.500558	0.27904	0.011616
455	H	0.498447	0.184284	0.719559
456	H	0.498008	0.180974	0.659003
457	C	0.504107	0.727579	0.01737
458	C	0.500558	0.77904	0.344948
459	H	0.498446	0.684282	0.052891
460	H	0.498007	0.680973	0.992337
461	C	0.504107	0.727579	0.350703
462	C	0.500558	0.77904	0.678282
463	H	0.498446	0.684282	0.386225
464	H	0.498007	0.680973	0.32567
465	C	0.504107	0.727579	0.684037
466	C	0.500558	0.77904	0.011616
467	H	0.498446	0.684282	0.719559
468	H	0.498007	0.680973	0.659003
469	C	0.618138	0.297341	0.014063
470	H	0.6126	0.272583	0.014684
471	C	0.540133	0.248088	0.016682
472	C	0.557108	0.284026	0.346868
473	C	0.536585	0.299549	0.344263
474	H	0.554301	0.236342	0.018799
475	C	0.551111	0.337005	0.340363
476	H	0.578848	0.35121	0.339947
477	H	0.542684	0.346155	0.369294
478	H	0.542246	0.342843	0.308738
479	N	0.591885	0.303777	0.34641
480	C	0.618138	0.297341	0.347396
481	H	0.6126	0.272583	0.348019
482	C	0.540133	0.248088	0.350015
483	C	0.557108	0.284026	0.680203
484	C	0.536585	0.299549	0.677597
485	H	0.554301	0.236342	0.352134
486	C	0.551111	0.337005	0.673697
487	H	0.578848	0.35121	0.67328
488	H	0.542684	0.346155	0.702625
489	H	0.542246	0.342843	0.642072
490	N	0.591885	0.303777	0.679744
491	C	0.618138	0.297341	0.68073
492	H	0.6126	0.272583	0.681353
493	C	0.540133	0.248088	0.683349
494	C	0.557108	0.284026	0.013537
495	C	0.536585	0.299549	0.010931
496	H	0.554301	0.236342	0.685465
497	C	0.551111	0.337005	0.007032
498	H	0.578848	0.35121	0.006614
499	H	0.542684	0.346155	0.035959
500	H	0.542246	0.342843	0.975406
501	N	0.591885	0.303777	0.013075
502	C	0.618137	0.797341	0.014063
503	H	0.612601	0.772583	0.014684
504	C	0.540134	0.748088	0.016682
505	C	0.557109	0.784026	0.346868
506	C	0.536585	0.799549	0.344263
507	H	0.554301	0.736341	0.018799
508	C	0.551112	0.837005	0.340363
509	H	0.578848	0.85121	0.339947
510	H	0.542683	0.846153	0.369294
511	H	0.542246	0.842843	0.308738
512	N	0.591886	0.803777	0.34641
513	C	0.618137	0.797341	0.347396
514	H	0.612601	0.772583	0.348019
515	C	0.540134	0.748088	0.350015
516	C	0.557109	0.784026	0.680203
517	C	0.536585	0.799549	0.677597
518	H	0.554301	0.736341	0.352134
519	C	0.551112	0.837005	0.673697
520	H	0.578848	0.85121	0.67328
521	H	0.542683	0.846153	0.702625
522	H	0.542246	0.842843	0.642072
523	N	0.591886	0.803777	0.679744
524	C	0.618137	0.797341	0.68073
525	H	0.612601	0.772583	0.681353
526	C	0.540134	0.748088	0.683349
527	C	0.557109	0.784026	0.013537
528	C	0.536585	0.799549	0.010931
529	H	0.554301	0.736341	0.685465
530	C	0.551112	0.837005	0.007032
531	H	0.578848	0.85121	0.006614
532	H	0.542683	0.846153	0.035959
533	H	0.542246	0.842843	0.975406
534	N	0.591886	0.803777	0.013075
535	C	0.697025	0.381065	0.013797
536	N	0.663392	0.356644	0.013819
537	C	0.652845	0.322741	0.013798
538	N	0.677267	0.31353	0.013819
539	C	0.711169	0.336885	0.013798
540	N	0.720381	0.370518	0.013818
541	C	0.73657	0.327577	0.014062
542	C	0.706333	0.415772	0.014059
543	H	0.687113	0.42131	0.014684
544	H	0.761327	0.346799	0.014682
545	C	0.843667	0.146063	0.014502
546	N	0.8773	0.170485	0.014479
547	C	0.887849	0.204386	0.014497
548	N	0.863425	0.213598	0.014477
549	C	0.829525	0.190243	0.0145
550	N	0.820313	0.156609	0.014481
551	C	0.804124	0.199551	0.014238
552	C	0.834361	0.111355	0.01424
553	C	0.922556	0.229786	0.014234
554	H	0.928092	0.254545	0.013613
555	H	0.853581	0.105819	0.013614
556	H	0.779368	0.18033	0.013619
557	C	0.790808	0.247263	0.014764
558	C	0.80633	0.283309	0.017369
559	C	0.785823	0.298829	0.016684
560	C	0.749886	0.279864	0.346868
561	C	0.734361	0.243819	0.344263
562	H	0.797569	0.324741	0.018795
563	C	0.75487	0.2283	0.344954
564	H	0.743125	0.202387	0.342835
565	C	0.696904	0.220888	0.340365
566	H	0.682701	0.23442	0.339946
567	H	0.687755	0.203313	0.369297
568	H	0.691067	0.206182	0.308742
569	C	0.84379	0.306239	0.021265
570	H	0.857993	0.292708	0.021681
571	H	0.849627	0.320945	0.052889
572	H	0.852934	0.323815	0.992333
573	N	0.81056	0.232238	0.015224
574	N	0.730134	0.294891	0.34641
575	C	0.786647	0.050326	0.014764
576	C	0.7506	0.029803	0.017374
577	C	0.735081	0.493775	0.016682
578	C	0.754045	0.476802	0.346865
579	C	0.790092	0.497326	0.344256
580	H	0.709168	0.479608	0.018806
581	C	0.80561	0.033351	0.344948
582	H	0.831523	0.047519	0.342825
583	C	0.813021	0.482798	0.340355
584	H	0.79949	0.455062	0.339935
585	H	0.830598	0.491224	0.369287
586	H	0.827728	0.491666	0.308731
587	C	0.727671	0.044331	0.021281
588	H	0.741204	0.072066	0.0217
589	H	0.712968	0.035462	0.052906
590	H	0.710093	0.035904	0.992354
591	N	0.801674	0.085104	0.015227
592	N	0.73902	0.442025	0.346403
593	C	0.983583	0.243102	0.014762
594	C	0.004107	0.22758	0.01737
595	C	0.000558	0.27904	0.344948
596	H	0.986392	0.290785	0.342832
597	C	0.98958	0.190122	0.021268
598	H	0.961843	0.175917	0.021685
599	H	0.998447	0.184284	0.052891
600	H	0.998008	0.180974	0.992337
601	N	0.948806	0.22335	0.015223
602	C	0.697025	0.381065	0.347132
603	N	0.663392	0.356644	0.347153
604	C	0.652845	0.322741	0.347132
605	N	0.677267	0.31353	0.347153
606	C	0.711169	0.336885	0.347132
607	N	0.720381	0.370518	0.347153
608	C	0.73657	0.327577	0.347396
609	C	0.706333	0.415772	0.347392
610	H	0.687113	0.42131	0.348019
611	H	0.761327	0.346799	0.348015
612	C	0.843667	0.146063	0.347834
613	N	0.8773	0.170485	0.347813
614	C	0.887849	0.204386	0.34783
615	N	0.863425	0.213598	0.34781
616	C	0.829525	0.190243	0.347834
617	N	0.820313	0.156609	0.347813
618	C	0.804124	0.199551	0.34757
619	C	0.834361	0.111355	0.347574
620	C	0.922556	0.229786	0.347567
621	H	0.928092	0.254545	0.346947
622	H	0.853581	0.105819	0.346947
623	H	0.779368	0.18033	0.346954
624	C	0.790808	0.247263	0.348097
625	C	0.80633	0.283309	0.350703
626	C	0.785823	0.298829	0.350018
627	C	0.749886	0.279864	0.680203
628	C	0.734361	0.243819	0.677597
629	H	0.797569	0.324741	0.352131
630	C	0.75487	0.2283	0.678289
631	H	0.743125	0.202387	0.676169
632	C	0.696904	0.220888	0.673697
633	H	0.682701	0.23442	0.67328
634	H	0.687755	0.203313	0.702632
635	H	0.691067	0.206182	0.642076
636	C	0.84379	0.306239	0.354599
637	H	0.857993	0.292708	0.355013
638	H	0.849627	0.320945	0.386221
639	H	0.852934	0.323815	0.325668
640	N	0.81056	0.232238	0.348556
641	N	0.730134	0.294891	0.67974
642	C	0.786647	0.050326	0.348097
643	C	0.7506	0.029803	0.350706
644	C	0.735081	0.493775	0.350015
645	C	0.754045	0.476802	0.680199
646	C	0.790092	0.497326	0.677587
647	H	0.709168	0.479608	0.352141
648	C	0.80561	0.033351	0.678282
649	H	0.831523	0.047519	0.676159
650	C	0.813021	0.482798	0.673687
651	H	0.79949	0.455062	0.673269
652	H	0.830598	0.491224	0.702618
653	H	0.827728	0.491666	0.642065
654	C	0.727671	0.044331	0.354613
655	H	0.741204	0.072066	0.355034
656	H	0.712968	0.035462	0.386238
657	H	0.710093	0.035904	0.325686
658	N	0.801674	0.085104	0.34856
659	N	0.73902	0.442025	0.679737
660	C	0.983583	0.243102	0.348097
661	C	0.004107	0.22758	0.350703
662	C	0.000558	0.27904	0.678282
663	H	0.986392	0.290785	0.676166
664	C	0.98958	0.190122	0.354603
665	H	0.961843	0.175917	0.355017
666	H	0.998447	0.184284	0.386225
667	H	0.998008	0.180974	0.32567
668	N	0.948806	0.22335	0.348556
669	C	0.697025	0.381065	0.680463
670	N	0.663392	0.356644	0.680487
671	C	0.652845	0.322741	0.680466
672	N	0.677267	0.31353	0.680487
673	C	0.711169	0.336885	0.680466
674	N	0.720381	0.370518	0.680483
675	C	0.73657	0.327577	0.68073
676	C	0.706333	0.415772	0.680726
677	H	0.687113	0.42131	0.681349
678	H	0.761327	0.346799	0.681349
679	C	0.843667	0.146063	0.681168
680	N	0.8773	0.170485	0.681144
681	C	0.887849	0.204386	0.681165
682	N	0.863425	0.213598	0.681144
683	C	0.829525	0.190243	0.681168
684	N	0.820313	0.156609	0.681147
685	C	0.804124	0.199551	0.680904
686	C	0.834361	0.111355	0.680908
687	C	0.922556	0.229786	0.680901
688	H	0.928092	0.254545	0.680281
689	H	0.853581	0.105819	0.680281
690	H	0.779368	0.18033	0.680288
691	C	0.790808	0.247263	0.681432
692	C	0.80633	0.283309	0.684037
693	C	0.785823	0.298829	0.683352
694	C	0.749886	0.279864	0.013537
695	C	0.734361	0.243819	0.010931
696	H	0.797569	0.324741	0.685461
697	C	0.75487	0.2283	0.011623
698	H	0.743125	0.202387	0.009504
699	C	0.696904	0.220888	0.007032
700	H	0.682701	0.23442	0.006614
701	H	0.687755	0.203313	0.035963
702	H	0.691067	0.206182	0.97541
703	C	0.84379	0.306239	0.687933
704	H	0.857993	0.292708	0.688348
705	H	0.849627	0.320945	0.719555
706	H	0.852934	0.323815	0.659003
707	N	0.81056	0.232238	0.68189
708	N	0.730134	0.294891	0.013075
709	C	0.786647	0.050326	0.681432
710	C	0.7506	0.029803	0.684041
711	C	0.735081	0.493775	0.683349
712	C	0.754045	0.476802	0.013533
713	C	0.790092	0.497326	0.010921
714	H	0.709168	0.479608	0.685472
715	C	0.80561	0.033351	0.011616
716	H	0.831523	0.047519	0.009493
717	C	0.813021	0.482798	0.007021
718	H	0.79949	0.455062	0.0066
719	H	0.830598	0.491224	0.035952
720	H	0.827728	0.491666	0.975399
721	C	0.727671	0.044331	0.687947
722	H	0.741204	0.072066	0.688368
723	H	0.712968	0.035462	0.719572
724	H	0.710093	0.035904	0.65902
725	N	0.801674	0.085104	0.681894
726	N	0.73902	0.442025	0.013071
727	C	0.983583	0.243102	0.681428
728	C	0.004107	0.22758	0.684037
729	C	0.000558	0.27904	0.011616
730	H	0.986392	0.290785	0.0095
731	C	0.98958	0.190122	0.687933
732	H	0.961843	0.175917	0.688351
733	H	0.998447	0.184284	0.719559
734	H	0.998008	0.180974	0.659003
735	N	0.948806	0.22335	0.68189
736	C	0.697026	0.881065	0.013797
737	N	0.663392	0.856641	0.013819
738	C	0.652844	0.822741	0.013798
739	N	0.677268	0.81353	0.013819
740	C	0.711168	0.836886	0.013798
741	N	0.72038	0.870518	0.013818
742	C	0.736569	0.827577	0.014062
743	C	0.706332	0.915772	0.014059
744	H	0.687112	0.92131	0.014684
745	H	0.761324	0.846797	0.014682
746	C	0.843668	0.646063	0.014502
747	N	0.877301	0.670484	0.014479
748	C	0.887848	0.704387	0.014497
749	N	0.863426	0.713598	0.014477
750	C	0.829524	0.690243	0.0145
751	N	0.820312	0.65661	0.014481
752	C	0.804123	0.699551	0.014238
753	C	0.834359	0.611354	0.01424
754	C	0.922554	0.729785	0.014234
755	H	0.928092	0.754542	0.013613
756	H	0.85358	0.605818	0.013614
757	H	0.779366	0.680329	0.013619
758	C	0.790807	0.747264	0.014764
759	C	0.806331	0.783309	0.017369
760	C	0.785822	0.798826	0.016684
761	C	0.749884	0.779864	0.346868
762	C	0.734361	0.743817	0.344263
763	H	0.797568	0.824741	0.018795
764	C	0.75487	0.728299	0.344954
765	H	0.743124	0.702387	0.342835
766	C	0.696903	0.720889	0.340365
767	H	0.6827	0.73442	0.339946
768	H	0.687756	0.703313	0.369297
769	H	0.691066	0.706183	0.308742
770	C	0.843788	0.806239	0.021265
771	H	0.857994	0.792708	0.021681
772	H	0.849628	0.820945	0.052889
773	H	0.852935	0.823815	0.992333
774	N	0.810559	0.732237	0.015224
775	N	0.730133	0.794891	0.34641
776	C	0.786648	0.550326	0.014764
777	C	0.750601	0.529802	0.017374
778	C	0.735082	0.993775	0.016682
779	C	0.754046	0.976802	0.346865
780	C	0.79009	0.997324	0.344256
781	H	0.709169	0.979608	0.018806
782	C	0.80561	0.53335	0.344948
783	H	0.831525	0.54752	0.342825
784	C	0.813022	0.982798	0.340355
785	H	0.799491	0.955062	0.339935
786	H	0.830597	0.991224	0.369287
787	H	0.827727	0.991666	0.308731
788	C	0.727672	0.54433	0.021281
789	H	0.741203	0.572066	0.0217
790	H	0.712969	0.535462	0.052906
791	H	0.710093	0.535905	0.992354
792	N	0.801672	0.585103	0.015227
793	N	0.739019	0.942025	0.346403
794	C	0.983584	0.743102	0.014762
795	C	0.004108	0.727579	0.01737
796	C	0.00056	0.77904	0.344948
797	H	0.986391	0.790785	0.342832
798	C	0.98958	0.690121	0.021268
799	H	0.961845	0.675918	0.021685
800	H	0.998445	0.684282	0.052891
801	H	0.998007	0.680973	0.992337
802	N	0.948808	0.723351	0.015223
803	C	0.697026	0.881065	0.347132
804	N	0.663392	0.856641	0.347153
805	C	0.652844	0.822741	0.347132
806	N	0.677268	0.81353	0.347153
807	C	0.711168	0.836886	0.347132
808	N	0.72038	0.870518	0.347153
809	C	0.736569	0.827577	0.347396
810	C	0.706332	0.915772	0.347392
811	H	0.687112	0.92131	0.348019
812	H	0.761324	0.846797	0.348015
813	C	0.843668	0.646063	0.347834
814	N	0.877301	0.670484	0.347813
815	C	0.887848	0.704387	0.34783
816	N	0.863426	0.713598	0.34781
817	C	0.829524	0.690243	0.347834
818	N	0.820312	0.65661	0.347813
819	C	0.804123	0.699551	0.34757
820	C	0.834359	0.611354	0.347574
821	C	0.922554	0.729785	0.347567
822	H	0.928092	0.754542	0.346947
823	H	0.85358	0.605818	0.346947
824	H	0.779366	0.680329	0.346954
825	C	0.790807	0.747264	0.348097
826	C	0.806331	0.783309	0.350703
827	C	0.785822	0.798826	0.350018
828	C	0.749884	0.779864	0.680203
829	C	0.734361	0.743817	0.677597
830	H	0.797568	0.824741	0.352131
831	C	0.75487	0.728299	0.678289
832	H	0.743124	0.702387	0.676169
833	C	0.696903	0.720889	0.673697
834	H	0.6827	0.73442	0.67328
835	H	0.687756	0.703313	0.702632
836	H	0.691066	0.706183	0.642076
837	C	0.843788	0.806239	0.354599
838	H	0.857994	0.792708	0.355013
839	H	0.849628	0.820945	0.386221
840	H	0.852935	0.823815	0.325668
841	N	0.810559	0.732237	0.348556
842	N	0.730133	0.794891	0.67974
843	C	0.786648	0.550326	0.348097
844	C	0.750601	0.529802	0.350706
845	C	0.735082	0.993775	0.350015
846	C	0.754046	0.976802	0.680199
847	C	0.79009	0.997324	0.677587
848	H	0.709169	0.979608	0.352141
849	C	0.80561	0.53335	0.678282
850	H	0.831525	0.54752	0.676159
851	C	0.813022	0.982798	0.673687
852	H	0.799491	0.955062	0.673269
853	H	0.830597	0.991224	0.702618
854	H	0.827727	0.991666	0.642065
855	C	0.727672	0.54433	0.354613
856	H	0.741203	0.572066	0.355034
857	H	0.712969	0.535462	0.386238
858	H	0.710093	0.535905	0.325686
859	N	0.801672	0.585103	0.34856
860	N	0.739019	0.942025	0.679737
861	C	0.983584	0.743102	0.348097
862	C	0.004108	0.727579	0.350703
863	C	0.00056	0.77904	0.678282
864	H	0.986391	0.790785	0.676166
865	C	0.98958	0.690121	0.354603
866	H	0.961845	0.675918	0.355017
867	H	0.998445	0.684282	0.386225
868	H	0.998007	0.680973	0.32567
869	N	0.948808	0.723351	0.348556
870	C	0.697026	0.881065	0.680463
871	N	0.663392	0.856641	0.680487
872	C	0.652844	0.822741	0.680466
873	N	0.677268	0.81353	0.680487
874	C	0.711168	0.836886	0.680466
875	N	0.72038	0.870518	0.680483
876	C	0.736569	0.827577	0.68073
877	C	0.706332	0.915772	0.680726
878	H	0.687112	0.92131	0.681349
879	H	0.761324	0.846797	0.681349
880	C	0.843668	0.646063	0.681168
881	N	0.877301	0.670484	0.681144
882	C	0.887848	0.704387	0.681165
883	N	0.863426	0.713598	0.681144
884	C	0.829524	0.690243	0.681168
885	N	0.820312	0.65661	0.681147
886	C	0.804123	0.699551	0.680904
887	C	0.834359	0.611354	0.680908
888	C	0.922554	0.729785	0.680901
889	H	0.928092	0.754542	0.680281
890	H	0.85358	0.605818	0.680281
891	H	0.779366	0.680329	0.680288
892	C	0.790807	0.747264	0.681432
893	C	0.806331	0.783309	0.684037
894	C	0.785822	0.798826	0.683352
895	C	0.749884	0.779864	0.013537
896	C	0.734361	0.743817	0.010931
897	H	0.797568	0.824741	0.685461
898	C	0.75487	0.728299	0.011623
899	H	0.743124	0.702387	0.009504
900	C	0.696903	0.720889	0.007032
901	H	0.6827	0.73442	0.006614
902	H	0.687756	0.703313	0.035963
903	H	0.691066	0.706183	0.97541
904	C	0.843788	0.806239	0.687933
905	H	0.857994	0.792708	0.688348
906	H	0.849628	0.820945	0.719555
907	H	0.852935	0.823815	0.659003
908	N	0.810559	0.732237	0.68189
909	N	0.730133	0.794891	0.013075
910	C	0.786648	0.550326	0.681432
911	C	0.750601	0.529802	0.684041
912	C	0.735082	0.993775	0.683349
913	C	0.754046	0.976802	0.013533
914	C	0.79009	0.997324	0.010921
915	H	0.709169	0.979608	0.685472
916	C	0.80561	0.53335	0.011616
917	H	0.831525	0.54752	0.009493
918	C	0.813022	0.982798	0.007021
919	H	0.799491	0.955062	0.0066
920	H	0.830597	0.991224	0.035952
921	H	0.827727	0.991666	0.975399
922	C	0.727672	0.54433	0.687947
923	H	0.741203	0.572066	0.688368
924	H	0.712969	0.535462	0.719572
925	H	0.710093	0.535905	0.65902
926	N	0.801672	0.585103	0.681894
927	N	0.739019	0.942025	0.013071
928	C	0.983584	0.743102	0.681428
929	C	0.004108	0.727579	0.684037
930	C	0.00056	0.77904	0.011616
931	H	0.986391	0.790785	0.0095
932	C	0.98958	0.690121	0.687933
933	H	0.961845	0.675918	0.688351
934	H	0.998445	0.684282	0.719559
935	H	0.998007	0.680973	0.659003
936	N	0.948808	0.723351	0.68189
