data_C660H384N96O96_2018-02-15_10:43:41
#******************************************
#
# CIF file created by Zeo++
# Zeo++ is an open source package to
# analyze microporous materials
#
#*******************************************

_cell_length_a		43.6439   
_cell_length_b		43.4388   
_cell_length_c		30.0442   
_cell_angle_alpha		90   
_cell_angle_beta		90   
_cell_angle_gamma		89.9977   

_symmetry_space_group_name_H-M		'P1'
_symmetry_Int_Tables_number		1
_symmetry_cell_setting		Monoclinic

loop_
_symmetry_equiv_pos_as_xyz
'+x,+y,+z'

loop_
_atom_site_label
_atom_site_type_symbol
_atom_site_fract_x
_atom_site_fract_y
_atom_site_fract_z
1	C	0.469968	0.500138	0.287993
2	C	0.470884	0.499466	0.240784
3	C	0.028629	0.501545	0.241589
4	C	0.028869	0.002006	0.288841
5	C	0.057761	0.003578	0.310772
6	C	0.085749	0.004665	0.287047
7	C	0.084531	0.00439	0.240036
8	C	0.056441	0.50268	0.217689
9	C	0.443398	0.498133	0.216157
10	C	0.414975	0.497668	0.237727
11	C	0.412975	0.498619	0.284715
12	C	0.440742	0.999593	0.309085
13	C	0.999947	0.471482	0.0086
14	C	0.999424	0.471666	0.055834
15	C	0.997634	0.0296	0.056351
16	C	0.998101	0.03029	0.009124
17	C	0.996581	0.057364	0.080632
18	C	0.996239	0.085766	0.058629
19	C	0.99688	0.087385	0.011575
20	C	0.497657	0.059402	0.320922
21	C	0.500788	0.442584	0.319836
22	C	0.001009	0.414392	0.009937
23	C	0.00039	0.415444	0.056987
24	C	0.999742	0.443638	0.079566
25	H	0.000121	0.395674	0.07552
26	H	0.999185	0.443539	0.113645
27	H	0.996272	0.05712	0.114718
28	H	0.995761	0.105284	0.077694
29	H	0.498172	0.060093	0.286844
30	H	0.501065	0.442188	0.285746
31	H	0.05834	0.003931	0.011513
32	H	0.104126	0.005682	0.22138
33	H	0.056444	0.502551	0.183598
34	H	0.439775	3.4e-05	0.009802
35	H	0.443863	0.49747	0.182088
36	H	0.395701	0.496526	0.218388
37	C	0.499238	0.001005	0.315263
38	C	0.998293	0.00051	0.081924
39	H	0.477785	0.999794	0.102852
40	H	0.018401	0.501022	0.103669
41	C	0.499944	0.500002	0.215461
42	H	0.499349	0.020018	0.193355
43	H	0.500846	0.479233	0.194886
44	C	0.497558	0.11536	0.322311
45	C	0.384715	0.998059	0.306477
46	C	0.500891	0.386716	0.320089
47	H	0.495543	0.386415	0.287908
48	H	0.499352	0.115758	0.289331
49	H	0.383711	0.993321	0.005472
50	C	0.113661	0.007022	0.309095
51	H	0.115044	0.018736	0.004101
52	C	0.008378	0.332217	0.994307
53	C	0.485129	0.317603	0.302213
54	C	0.485431	0.285118	0.29824
55	C	0.007946	0.267238	0.319926
56	C	0.031214	0.282238	0.010951
57	C	0.031312	0.314382	0.014904
58	H	0.047318	0.26978	0.027989
59	H	0.0475	0.324539	0.034764
60	C	0.004615	0.234873	0.323108
61	C	0.006161	0.21516	0.285484
62	C	0.003119	0.182957	0.291738
63	C	0.998373	0.170443	0.334583
64	C	0.996276	0.190327	0.038046
65	C	0.999305	0.222168	0.032405
66	H	0.504998	0.168651	0.264864
67	H	0.99296	0.181772	0.069466
68	H	0.99772	0.235999	0.059932
69	H	0.467727	0.274418	0.28208
70	N	0.011735	0.227893	0.242855
71	N	0.460981	0.335288	0.283946
72	O	0.990271	0.221894	0.216368
73	O	0.459758	0.332394	0.242372
74	O	0.036356	0.218017	0.226548
75	O	0.435475	0.327882	0.300137
76	N	0.497088	0.140813	0.34389
77	N	0.007528	0.361416	0.006501
78	C	0.167612	0.994132	0.300463
79	C	0.185338	0.472529	0.276295
80	C	0.217669	0.473876	0.27879
81	C	0.232698	0.99688	0.303846
82	C	0.214775	0.017691	0.328845
83	C	0.182566	0.016384	0.993751
84	H	0.225007	0.035094	0.01303
85	H	0.17019	0.032963	0.009888
86	C	0.264985	0.000557	0.300138
87	C	0.278776	0.007363	0.258419
88	C	0.311083	0.008672	0.25532
89	C	0.329918	0.003286	0.292584
90	C	0.316029	0.997327	0.334117
91	C	0.283885	0.996176	0.337865
92	H	0.320906	0.513027	0.224982
93	H	0.329159	0.993082	0.028281
94	H	0.274402	0.990939	0.034768
95	H	0.230307	0.458696	0.26026
96	N	0.26021	0.012934	0.220521
97	N	0.170392	0.450714	0.248736
98	O	0.265424	0.49383	0.190024
99	O	0.177659	0.454124	0.208558
100	O	0.264212	0.039607	0.20542
101	O	0.176645	0.423633	0.260282
102	N	0.359776	0.502797	0.284823
103	N	0.137839	0.995207	0.291719
104	C	0.469968	0.500138	0.621327
105	C	0.470884	0.499466	0.574117
106	C	0.028629	0.501545	0.574922
107	C	0.028869	0.002006	0.622176
108	C	0.057761	0.003578	0.644107
109	C	0.085749	0.004665	0.620382
110	C	0.084531	0.00439	0.573371
111	C	0.056441	0.50268	0.551021
112	C	0.443398	0.498133	0.54949
113	C	0.414975	0.497668	0.571061
114	C	0.412975	0.498619	0.618049
115	C	0.440742	0.999593	0.642419
116	C	0.999947	0.471482	0.341936
117	C	0.999424	0.471666	0.389166
118	C	0.997634	0.0296	0.389685
119	C	0.998101	0.03029	0.342458
120	C	0.996581	0.057364	0.413966
121	C	0.996239	0.085766	0.391962
122	C	0.99688	0.087385	0.344908
123	C	0.497657	0.059402	0.654255
124	C	0.500788	0.442584	0.65317
125	C	0.001009	0.414392	0.34327
126	C	0.00039	0.415444	0.390321
127	C	0.999742	0.443638	0.412901
128	H	0.000121	0.395674	0.408854
129	H	0.999185	0.443539	0.446978
130	H	0.996272	0.05712	0.448053
131	H	0.995761	0.105284	0.411027
132	H	0.498172	0.060093	0.620179
133	H	0.501065	0.442188	0.61908
134	H	0.05834	0.003931	0.344845
135	H	0.104126	0.005682	0.554712
136	H	0.056444	0.502551	0.516931
137	H	0.439775	3.4e-05	0.343137
138	H	0.443863	0.49747	0.515423
139	H	0.395701	0.496526	0.55172
140	C	0.499238	0.001005	0.648597
141	C	0.998293	0.00051	0.415258
142	H	0.477785	0.999794	0.436187
143	H	0.018401	0.501022	0.437002
144	C	0.499944	0.500002	0.548794
145	H	0.499349	0.020018	0.52669
146	H	0.500846	0.479233	0.528221
147	C	0.497558	0.11536	0.655643
148	C	0.384715	0.998059	0.63981
149	C	0.500891	0.386716	0.653423
150	H	0.495543	0.386415	0.621244
151	H	0.499352	0.115758	0.622665
152	H	0.383711	0.993321	0.338807
153	C	0.113661	0.007022	0.642429
154	H	0.115044	0.018736	0.337436
155	C	0.008378	0.332217	0.327641
156	C	0.485129	0.317603	0.635546
157	C	0.485431	0.285118	0.631575
158	C	0.007946	0.267238	0.65326
159	C	0.031214	0.282238	0.344286
160	C	0.031312	0.314382	0.348236
161	H	0.047318	0.26978	0.361324
162	H	0.0475	0.324539	0.368097
163	C	0.004615	0.234873	0.656442
164	C	0.006161	0.21516	0.618817
165	C	0.003119	0.182957	0.625072
166	C	0.998373	0.170443	0.667918
167	C	0.996276	0.190327	0.371379
168	C	0.999305	0.222168	0.365737
169	H	0.504998	0.168651	0.598198
170	H	0.99296	0.181772	0.402799
171	H	0.99772	0.235999	0.393267
172	H	0.467727	0.274418	0.615412
173	N	0.011735	0.227893	0.576187
174	N	0.460981	0.335288	0.61728
175	O	0.990271	0.221894	0.549703
176	O	0.459758	0.332394	0.575708
177	O	0.036356	0.218017	0.559881
178	O	0.435475	0.327882	0.633469
179	N	0.497088	0.140813	0.677225
180	N	0.007528	0.361416	0.339836
181	C	0.167612	0.994132	0.633795
182	C	0.185338	0.472529	0.609628
183	C	0.217669	0.473876	0.612124
184	C	0.232698	0.99688	0.63718
185	C	0.214775	0.017691	0.662177
186	C	0.182566	0.016384	0.327085
187	H	0.225007	0.035094	0.346363
188	H	0.17019	0.032963	0.343221
189	C	0.264985	0.000557	0.633473
190	C	0.278776	0.007363	0.591754
191	C	0.311083	0.008672	0.588655
192	C	0.329918	0.003286	0.625917
193	C	0.316029	0.997327	0.667452
194	C	0.283885	0.996176	0.6712
195	H	0.320906	0.513027	0.558317
196	H	0.329159	0.993082	0.361613
197	H	0.274402	0.990939	0.368101
198	H	0.230307	0.458696	0.593595
199	N	0.26021	0.012934	0.553853
200	N	0.170392	0.450714	0.582068
201	O	0.265424	0.49383	0.523358
202	O	0.177659	0.454124	0.541891
203	O	0.264212	0.039607	0.538752
204	O	0.176645	0.423633	0.593615
205	N	0.359776	0.502797	0.618155
206	N	0.137839	0.995207	0.625052
207	C	0.469968	0.500138	0.954662
208	C	0.470884	0.499466	0.907452
209	C	0.028629	0.501545	0.908257
210	C	0.028869	0.002006	0.955508
211	C	0.057761	0.003578	0.977439
212	C	0.085749	0.004665	0.953714
213	C	0.084531	0.00439	0.906703
214	C	0.056441	0.50268	0.884356
215	C	0.443398	0.498133	0.882825
216	C	0.414975	0.497668	0.904393
217	C	0.412975	0.498619	0.951384
218	C	0.440742	0.999593	0.975751
219	C	0.999947	0.471482	0.675268
220	C	0.999424	0.471666	0.722501
221	C	0.997634	0.0296	0.723017
222	C	0.998101	0.03029	0.67579
223	C	0.996581	0.057364	0.747301
224	C	0.996239	0.085766	0.725297
225	C	0.99688	0.087385	0.678243
226	C	0.497657	0.059402	0.98759
227	C	0.500788	0.442584	0.986505
228	C	0.001009	0.414392	0.676606
229	C	0.00039	0.415444	0.723656
230	C	0.999742	0.443638	0.746233
231	H	0.000121	0.395674	0.742189
232	H	0.999185	0.443539	0.780313
233	H	0.996272	0.05712	0.781384
234	H	0.995761	0.105284	0.744362
235	H	0.498172	0.060093	0.953511
236	H	0.501065	0.442188	0.952412
237	H	0.05834	0.003931	0.67818
238	H	0.104126	0.005682	0.888047
239	H	0.056444	0.502551	0.850266
240	H	0.439775	3.4e-05	0.676469
241	H	0.443863	0.49747	0.848755
242	H	0.395701	0.496526	0.885055
243	C	0.499238	0.001005	0.981932
244	C	0.998293	0.00051	0.748593
245	H	0.477785	0.999794	0.769519
246	H	0.018401	0.501022	0.770337
247	C	0.499944	0.500002	0.882129
248	H	0.499349	0.020018	0.860022
249	H	0.500846	0.479233	0.861553
250	C	0.497558	0.11536	0.988978
251	C	0.384715	0.998059	0.973145
252	C	0.500891	0.386716	0.986755
253	H	0.495543	0.386415	0.954576
254	H	0.499352	0.115758	0.955997
255	H	0.383711	0.993321	0.672139
256	C	0.113661	0.007022	0.975761
257	H	0.115044	0.018736	0.670768
258	C	0.008378	0.332217	0.660975
259	C	0.485129	0.317603	0.968881
260	C	0.485431	0.285118	0.964907
261	C	0.007946	0.267238	0.986595
262	C	0.031214	0.282238	0.677617
263	C	0.031312	0.314382	0.681572
264	H	0.047318	0.26978	0.694656
265	H	0.0475	0.324539	0.701432
266	C	0.004615	0.234873	0.989774
267	C	0.006161	0.21516	0.952153
268	C	0.003119	0.182957	0.958407
269	C	0.998373	0.170443	0.001249
270	C	0.996276	0.190327	0.704714
271	C	0.999305	0.222168	0.699072
272	H	0.504998	0.168651	0.93153
273	H	0.99296	0.181772	0.736134
274	H	0.99772	0.235999	0.726599
275	H	0.467727	0.274418	0.948748
276	N	0.011735	0.227893	0.909522
277	N	0.460981	0.335288	0.950615
278	O	0.990271	0.221894	0.883035
279	O	0.459758	0.332394	0.90904
280	O	0.036356	0.218017	0.893216
281	O	0.435475	0.327882	0.966804
282	N	0.497088	0.140813	0.010557
283	N	0.007528	0.361416	0.673167
284	C	0.167612	0.994132	0.967131
285	C	0.185338	0.472529	0.942963
286	C	0.217669	0.473876	0.945456
287	C	0.232698	0.99688	0.970512
288	C	0.214775	0.017691	0.995512
289	C	0.182566	0.016384	0.660419
290	H	0.225007	0.035094	0.679698
291	H	0.17019	0.032963	0.676556
292	C	0.264985	0.000557	0.966804
293	C	0.278776	0.007363	0.925086
294	C	0.311083	0.008672	0.921987
295	C	0.329918	0.003286	0.959252
296	C	0.316029	0.997327	0.000784
297	C	0.283885	0.996176	0.004532
298	H	0.320906	0.513027	0.891648
299	H	0.329159	0.993082	0.694949
300	H	0.274402	0.990939	0.701436
301	H	0.230307	0.458696	0.926926
302	N	0.26021	0.012934	0.887188
303	N	0.170392	0.450714	0.915403
304	O	0.265424	0.49383	0.85669
305	O	0.177659	0.454124	0.875226
306	O	0.264212	0.039607	0.872087
307	O	0.176645	0.423633	0.92695
308	N	0.359776	0.502797	0.95149
309	N	0.137839	0.995207	0.958387
310	C	0.469967	0.000137	0.287993
311	C	0.470884	0.999465	0.240784
312	C	0.028629	0.001544	0.241589
313	C	0.028869	0.502005	0.288841
314	C	0.057761	0.503577	0.310772
315	C	0.085749	0.504666	0.287047
316	C	0.084531	0.50439	0.240036
317	C	0.056441	0.00268	0.217689
318	C	0.443399	0.998133	0.216157
319	C	0.414973	0.997668	0.237727
320	C	0.412975	0.998619	0.284715
321	C	0.440743	0.499592	0.309085
322	C	0.999947	0.971482	0.0086
323	C	0.999424	0.971666	0.055834
324	C	0.997632	0.5296	0.056351
325	C	0.998102	0.530288	0.009124
326	C	0.996582	0.557363	0.080632
327	C	0.996237	0.585767	0.058629
328	C	0.996878	0.587385	0.011575
329	C	0.497658	0.559401	0.320922
330	C	0.500786	0.942583	0.319836
331	C	0.001009	0.914392	0.009937
332	C	0.00039	0.915444	0.056987
333	C	0.999742	0.943638	0.079566
334	H	0.000121	0.895674	0.07552
335	H	0.999183	0.943539	0.113645
336	H	0.996272	0.557119	0.114718
337	H	0.995762	0.605284	0.077694
338	H	0.498173	0.560094	0.286844
339	H	0.501065	0.942187	0.285746
340	H	0.05834	0.503932	0.011513
341	H	0.104126	0.505681	0.22138
342	H	0.056444	0.00255	0.183598
343	H	0.439776	0.500034	0.009802
344	H	0.443864	0.99747	0.182088
345	H	0.395699	0.996526	0.218388
346	C	0.499239	0.501006	0.315263
347	C	0.998293	0.500511	0.081924
348	H	0.477785	0.499795	0.102852
349	H	0.018401	0.001023	0.103669
350	C	0.499944	3e-06	0.215461
351	H	0.499348	0.520019	0.193355
352	H	0.500846	0.979233	0.194886
353	C	0.497559	0.61536	0.322311
354	C	0.384714	0.498057	0.306477
355	C	0.500891	0.886716	0.320089
356	H	0.495541	0.886415	0.287908
357	H	0.499353	0.615758	0.289331
358	H	0.383711	0.493322	0.005472
359	C	0.113661	0.507021	0.309095
360	H	0.115044	0.518737	0.004101
361	C	0.008378	0.832217	0.994307
362	C	0.48513	0.817605	0.302214
363	C	0.485431	0.785118	0.29824
364	C	0.007946	0.767238	0.319926
365	C	0.031214	0.782238	0.010951
366	C	0.031312	0.814382	0.014904
367	H	0.047318	0.769779	0.027988
368	H	0.0475	0.824539	0.034764
369	C	0.004615	0.734873	0.323108
370	C	0.006161	0.71516	0.285484
371	C	0.003119	0.682956	0.291738
372	C	0.998374	0.670442	0.334583
373	C	0.996276	0.690327	0.038046
374	C	0.999305	0.722168	0.032405
375	H	0.504999	0.668651	0.264864
376	H	0.992961	0.681773	0.069466
377	H	0.99772	0.736001	0.059932
378	H	0.467727	0.77442	0.28208
379	N	0.011735	0.727893	0.242855
380	N	0.460982	0.835288	0.283946
381	O	0.990272	0.721894	0.216368
382	O	0.459758	0.832394	0.242373
383	O	0.036356	0.718017	0.226548
384	O	0.435476	0.827882	0.300137
385	N	0.497088	0.640814	0.34389
386	N	0.007528	0.861416	0.006501
387	C	0.167612	0.494132	0.300463
388	C	0.185338	0.972529	0.276295
389	C	0.217669	0.973876	0.27879
390	C	0.232698	0.496881	0.303846
391	C	0.214775	0.517691	0.328845
392	C	0.182566	0.516384	0.993751
393	H	0.225007	0.535093	0.01303
394	H	0.17019	0.532964	0.009888
395	C	0.264984	0.500557	0.300138
396	C	0.278777	0.507364	0.258419
397	C	0.311084	0.508672	0.25532
398	C	0.329916	0.503287	0.292584
399	C	0.316031	0.497327	0.334117
400	C	0.283885	0.496176	0.337865
401	H	0.320906	0.013028	0.224982
402	H	0.32916	0.493082	0.028281
403	H	0.274401	0.490939	0.034768
404	H	0.230308	0.958696	0.26026
405	N	0.260211	0.512935	0.220521
406	N	0.170392	0.950714	0.248736
407	O	0.265425	0.99383	0.190024
408	O	0.177659	0.954124	0.208558
409	O	0.264212	0.539607	0.20542
410	O	0.176645	0.923633	0.260282
411	N	0.359777	0.002797	0.284823
412	N	0.13784	0.495207	0.291719
413	C	0.469967	0.000137	0.621327
414	C	0.470884	0.999465	0.574117
415	C	0.028629	0.001544	0.574922
416	C	0.028869	0.502005	0.622176
417	C	0.057761	0.503577	0.644107
418	C	0.085749	0.504666	0.620382
419	C	0.084531	0.50439	0.573371
420	C	0.056441	0.00268	0.551021
421	C	0.443399	0.998133	0.54949
422	C	0.414973	0.997668	0.571061
423	C	0.412975	0.998619	0.618049
424	C	0.440743	0.499592	0.642419
425	C	0.999947	0.971482	0.341936
426	C	0.999424	0.971666	0.389166
427	C	0.997632	0.5296	0.389685
428	C	0.998102	0.530288	0.342458
429	C	0.996582	0.557363	0.413966
430	C	0.996237	0.585767	0.391962
431	C	0.996878	0.587385	0.344908
432	C	0.497658	0.559401	0.654255
433	C	0.500786	0.942583	0.65317
434	C	0.001009	0.914392	0.34327
435	C	0.00039	0.915444	0.390321
436	C	0.999742	0.943638	0.412901
437	H	0.000121	0.895674	0.408854
438	H	0.999183	0.943539	0.446978
439	H	0.996272	0.557119	0.448053
440	H	0.995762	0.605284	0.411027
441	H	0.498173	0.560094	0.620179
442	H	0.501065	0.942187	0.61908
443	H	0.05834	0.503932	0.344845
444	H	0.104126	0.505681	0.554712
445	H	0.056444	0.00255	0.516931
446	H	0.439776	0.500034	0.343137
447	H	0.443864	0.99747	0.515423
448	H	0.395699	0.996526	0.55172
449	C	0.499239	0.501006	0.648597
450	C	0.998293	0.500511	0.415258
451	H	0.477785	0.499795	0.436187
452	H	0.018401	0.001023	0.437002
453	C	0.499944	3e-06	0.548794
454	H	0.499348	0.520019	0.52669
455	H	0.500846	0.979233	0.528221
456	C	0.497559	0.61536	0.655643
457	C	0.384714	0.498057	0.63981
458	C	0.500891	0.886716	0.653423
459	H	0.495541	0.886415	0.621244
460	H	0.499353	0.615758	0.622665
461	H	0.383711	0.493322	0.338807
462	C	0.113661	0.507021	0.642429
463	H	0.115044	0.518737	0.337436
464	C	0.008378	0.832217	0.327641
465	C	0.48513	0.817605	0.635546
466	C	0.485431	0.785118	0.631575
467	C	0.007946	0.767238	0.65326
468	C	0.031214	0.782238	0.344286
469	C	0.031312	0.814382	0.348236
470	H	0.047318	0.769779	0.361324
471	H	0.0475	0.824539	0.368097
472	C	0.004615	0.734873	0.656442
473	C	0.006161	0.71516	0.618817
474	C	0.003119	0.682956	0.625072
475	C	0.998374	0.670442	0.667918
476	C	0.996276	0.690327	0.371379
477	C	0.999305	0.722168	0.365737
478	H	0.504999	0.668651	0.598198
479	H	0.992961	0.681773	0.402799
480	H	0.99772	0.736001	0.393267
481	H	0.467727	0.77442	0.615412
482	N	0.011735	0.727893	0.576187
483	N	0.460982	0.835288	0.61728
484	O	0.990272	0.721894	0.549703
485	O	0.459758	0.832394	0.575708
486	O	0.036356	0.718017	0.559881
487	O	0.435476	0.827882	0.633469
488	N	0.497088	0.640814	0.677225
489	N	0.007528	0.861416	0.339836
490	C	0.167612	0.494132	0.633795
491	C	0.185338	0.972529	0.609628
492	C	0.217669	0.973876	0.612124
493	C	0.232698	0.496881	0.63718
494	C	0.214775	0.517691	0.662177
495	C	0.182566	0.516384	0.327085
496	H	0.225007	0.535093	0.346363
497	H	0.17019	0.532964	0.343221
498	C	0.264984	0.500557	0.633473
499	C	0.278777	0.507364	0.591754
500	C	0.311084	0.508672	0.588655
501	C	0.329916	0.503287	0.625917
502	C	0.316031	0.497327	0.667452
503	C	0.283885	0.496176	0.6712
504	H	0.320906	0.013028	0.558317
505	H	0.32916	0.493082	0.361613
506	H	0.274401	0.490939	0.368101
507	H	0.230308	0.958696	0.593595
508	N	0.260211	0.512935	0.553853
509	N	0.170392	0.950714	0.582068
510	O	0.265425	0.99383	0.523358
511	O	0.177659	0.954124	0.541891
512	O	0.264212	0.539607	0.538752
513	O	0.176645	0.923633	0.593615
514	N	0.359777	0.002797	0.618155
515	N	0.13784	0.495207	0.625052
516	C	0.469967	0.000137	0.954662
517	C	0.470884	0.999465	0.907452
518	C	0.028629	0.001544	0.908257
519	C	0.028869	0.502005	0.955508
520	C	0.057761	0.503577	0.977439
521	C	0.085749	0.504666	0.953714
522	C	0.084531	0.50439	0.906703
523	C	0.056441	0.00268	0.884356
524	C	0.443399	0.998133	0.882825
525	C	0.414973	0.997668	0.904393
526	C	0.412975	0.998619	0.951384
527	C	0.440743	0.499592	0.975751
528	C	0.999947	0.971482	0.675268
529	C	0.999424	0.971666	0.722501
530	C	0.997632	0.5296	0.723017
531	C	0.998102	0.530288	0.67579
532	C	0.996582	0.557363	0.747301
533	C	0.996237	0.585767	0.725297
534	C	0.996878	0.587385	0.678243
535	C	0.497658	0.559401	0.98759
536	C	0.500786	0.942583	0.986505
537	C	0.001009	0.914392	0.676606
538	C	0.00039	0.915444	0.723656
539	C	0.999742	0.943638	0.746233
540	H	0.000121	0.895674	0.742189
541	H	0.999183	0.943539	0.780313
542	H	0.996272	0.557119	0.781384
543	H	0.995762	0.605284	0.744362
544	H	0.498173	0.560094	0.953511
545	H	0.501065	0.942187	0.952412
546	H	0.05834	0.503932	0.67818
547	H	0.104126	0.505681	0.888047
548	H	0.056444	0.00255	0.850266
549	H	0.439776	0.500034	0.676469
550	H	0.443864	0.99747	0.848755
551	H	0.395699	0.996526	0.885055
552	C	0.499239	0.501006	0.981932
553	C	0.998293	0.500511	0.748593
554	H	0.477785	0.499795	0.769519
555	H	0.018401	0.001023	0.770337
556	C	0.499944	3e-06	0.882129
557	H	0.499348	0.520019	0.860022
558	H	0.500846	0.979233	0.861553
559	C	0.497559	0.61536	0.988978
560	C	0.384714	0.498057	0.973145
561	C	0.500891	0.886716	0.986755
562	H	0.495541	0.886415	0.954576
563	H	0.499353	0.615758	0.955997
564	H	0.383711	0.493322	0.672139
565	C	0.113661	0.507021	0.975761
566	H	0.115044	0.518737	0.670768
567	C	0.008378	0.832217	0.660975
568	C	0.48513	0.817605	0.968881
569	C	0.485431	0.785118	0.964907
570	C	0.007946	0.767238	0.986595
571	C	0.031214	0.782238	0.677617
572	C	0.031312	0.814382	0.681572
573	H	0.047318	0.769779	0.694656
574	H	0.0475	0.824539	0.701432
575	C	0.004615	0.734873	0.989774
576	C	0.006161	0.71516	0.952153
577	C	0.003119	0.682956	0.958407
578	C	0.998374	0.670442	0.001249
579	C	0.996276	0.690327	0.704714
580	C	0.999305	0.722168	0.699072
581	H	0.504999	0.668651	0.93153
582	H	0.992961	0.681773	0.736134
583	H	0.99772	0.736001	0.726599
584	H	0.467727	0.77442	0.948748
585	N	0.011735	0.727893	0.909522
586	N	0.460982	0.835288	0.950615
587	O	0.990272	0.721894	0.883035
588	O	0.459758	0.832394	0.90904
589	O	0.036356	0.718017	0.893216
590	O	0.435476	0.827882	0.966804
591	N	0.497088	0.640814	0.010557
592	N	0.007528	0.861416	0.673167
593	C	0.167612	0.494132	0.967131
594	C	0.185338	0.972529	0.942963
595	C	0.217669	0.973876	0.945456
596	C	0.232698	0.496881	0.970512
597	C	0.214775	0.517691	0.995512
598	C	0.182566	0.516384	0.660419
599	H	0.225007	0.535093	0.679698
600	H	0.17019	0.532964	0.676556
601	C	0.264984	0.500557	0.966804
602	C	0.278777	0.507364	0.925086
603	C	0.311084	0.508672	0.921987
604	C	0.329916	0.503287	0.959252
605	C	0.316031	0.497327	0.000784
606	C	0.283885	0.496176	0.004532
607	H	0.320906	0.013028	0.891648
608	H	0.32916	0.493082	0.694949
609	H	0.274401	0.490939	0.701436
610	H	0.230308	0.958696	0.926926
611	N	0.260211	0.512935	0.887188
612	N	0.170392	0.950714	0.915403
613	O	0.265425	0.99383	0.85669
614	O	0.177659	0.954124	0.875226
615	O	0.264212	0.539607	0.872087
616	O	0.176645	0.923633	0.92695
617	N	0.359777	0.002797	0.95149
618	N	0.13784	0.495207	0.958387
619	C	0.969969	0.500138	0.287993
620	C	0.970883	0.499466	0.240784
621	C	0.528629	0.501545	0.241589
622	C	0.528869	0.002006	0.288841
623	C	0.557761	0.003578	0.310772
624	C	0.585749	0.004665	0.287047
625	C	0.58453	0.00439	0.240036
626	C	0.556442	0.50268	0.217689
627	C	0.943397	0.498133	0.216157
628	C	0.914974	0.497668	0.237727
629	C	0.912976	0.498619	0.284715
630	C	0.940743	0.999593	0.309085
631	C	0.499948	0.471482	0.0086
632	C	0.499425	0.471666	0.055834
633	C	0.497633	0.0296	0.056351
634	C	0.498103	0.03029	0.009124
635	C	0.496582	0.057364	0.080632
636	C	0.496238	0.085766	0.058629
637	C	0.496879	0.087385	0.011575
638	C	0.997658	0.059402	0.320922
639	C	0.000787	0.442584	0.319836
640	C	0.501009	0.414392	0.009937
641	C	0.50039	0.415444	0.056987
642	C	0.499743	0.443638	0.079566
643	H	0.50012	0.395674	0.07552
644	H	0.499184	0.443539	0.113645
645	H	0.496271	0.05712	0.114718
646	H	0.495762	0.105284	0.077694
647	H	0.998173	0.060093	0.286844
648	H	0.001066	0.442188	0.285746
649	H	0.558339	0.003931	0.011513
650	H	0.604125	0.005682	0.22138
651	H	0.556445	0.502551	0.183598
652	H	0.939774	3.4e-05	0.009802
653	H	0.943864	0.49747	0.182088
654	H	0.8957	0.496526	0.218388
655	C	0.999239	0.001005	0.315263
656	C	0.498292	0.00051	0.081924
657	H	0.977783	0.999794	0.102852
658	H	0.5184	0.501022	0.103669
659	C	0.999944	0.500002	0.215461
660	H	0.999349	0.020018	0.193355
661	H	0.000845	0.479233	0.194886
662	C	0.997559	0.11536	0.322311
663	C	0.884713	0.998059	0.306477
664	C	0.000892	0.386716	0.320089
665	H	0.995541	0.386415	0.287908
666	H	0.999353	0.115758	0.289331
667	H	0.88371	0.993321	0.005472
668	C	0.613661	0.007022	0.309095
669	H	0.615045	0.018736	0.004101
670	C	0.508378	0.332217	0.994307
671	C	0.98513	0.317603	0.302213
672	C	0.985432	0.285118	0.29824
673	C	0.507946	0.267238	0.319926
674	C	0.531213	0.282238	0.010951
675	C	0.531312	0.314382	0.014904
676	H	0.547319	0.26978	0.027989
677	H	0.5475	0.324539	0.034764
678	C	0.504615	0.234873	0.323108
679	C	0.50616	0.21516	0.285484
680	C	0.503119	0.182957	0.291738
681	C	0.498372	0.170443	0.334583
682	C	0.496277	0.190327	0.038046
683	C	0.499305	0.222168	0.032405
684	H	0.004998	0.168651	0.264864
685	H	0.492959	0.181772	0.069466
686	H	0.497721	0.235999	0.059932
687	H	0.967728	0.274418	0.28208
688	N	0.511735	0.227893	0.242855
689	N	0.960982	0.335288	0.283946
690	O	0.49027	0.221894	0.216368
691	O	0.959759	0.332394	0.242372
692	O	0.536357	0.218017	0.226548
693	O	0.935476	0.327882	0.300137
694	N	0.997089	0.140813	0.34389
695	N	0.507529	0.361416	0.006501
696	C	0.667611	0.994132	0.300463
697	C	0.685339	0.472529	0.276295
698	C	0.717669	0.473876	0.27879
699	C	0.732697	0.99688	0.303846
700	C	0.714775	0.017691	0.328845
701	C	0.682566	0.016384	0.993751
702	H	0.725007	0.035094	0.01303
703	H	0.670191	0.032963	0.009888
704	C	0.764984	0.000557	0.300138
705	C	0.778777	0.007363	0.258419
706	C	0.811084	0.008672	0.25532
707	C	0.829916	0.003286	0.292584
708	C	0.81603	0.997327	0.334117
709	C	0.783886	0.996176	0.337865
710	H	0.820905	0.513027	0.224982
711	H	0.82916	0.993082	0.028281
712	H	0.774403	0.990939	0.034768
713	H	0.730308	0.458696	0.26026
714	N	0.760211	0.012934	0.220521
715	N	0.670392	0.450714	0.248736
716	O	0.765425	0.49383	0.190024
717	O	0.677659	0.454124	0.208558
718	O	0.764213	0.039607	0.20542
719	O	0.676646	0.423633	0.260282
720	N	0.859777	0.502797	0.284823
721	N	0.637841	0.995207	0.291719
722	C	0.969969	0.500138	0.621327
723	C	0.970883	0.499466	0.574117
724	C	0.528629	0.501545	0.574922
725	C	0.528869	0.002006	0.622176
726	C	0.557761	0.003578	0.644107
727	C	0.585749	0.004665	0.620382
728	C	0.58453	0.00439	0.573371
729	C	0.556442	0.50268	0.551021
730	C	0.943397	0.498133	0.54949
731	C	0.914974	0.497668	0.571061
732	C	0.912976	0.498619	0.618049
733	C	0.940743	0.999593	0.642419
734	C	0.499948	0.471482	0.341936
735	C	0.499425	0.471666	0.389166
736	C	0.497633	0.0296	0.389685
737	C	0.498103	0.03029	0.342458
738	C	0.496582	0.057364	0.413966
739	C	0.496238	0.085766	0.391962
740	C	0.496879	0.087385	0.344908
741	C	0.997658	0.059402	0.654255
742	C	0.000787	0.442584	0.65317
743	C	0.501009	0.414392	0.34327
744	C	0.50039	0.415444	0.390321
745	C	0.499743	0.443638	0.412901
746	H	0.50012	0.395674	0.408854
747	H	0.499184	0.443539	0.446978
748	H	0.496271	0.05712	0.448053
749	H	0.495762	0.105284	0.411027
750	H	0.998173	0.060093	0.620179
751	H	0.001066	0.442188	0.61908
752	H	0.558339	0.003931	0.344845
753	H	0.604125	0.005682	0.554712
754	H	0.556445	0.502551	0.516931
755	H	0.939774	3.4e-05	0.343137
756	H	0.943864	0.49747	0.515423
757	H	0.8957	0.496526	0.55172
758	C	0.999239	0.001005	0.648597
759	C	0.498292	0.00051	0.415258
760	H	0.977783	0.999794	0.436187
761	H	0.5184	0.501022	0.437002
762	C	0.999944	0.500002	0.548794
763	H	0.999349	0.020018	0.52669
764	H	0.000845	0.479233	0.528221
765	C	0.997559	0.11536	0.655643
766	C	0.884713	0.998059	0.63981
767	C	0.000892	0.386716	0.653423
768	H	0.995541	0.386415	0.621244
769	H	0.999353	0.115758	0.622665
770	H	0.88371	0.993321	0.338807
771	C	0.613661	0.007022	0.642429
772	H	0.615045	0.018736	0.337436
773	C	0.508378	0.332217	0.327641
774	C	0.98513	0.317603	0.635546
775	C	0.985432	0.285118	0.631575
776	C	0.507946	0.267238	0.65326
777	C	0.531213	0.282238	0.344286
778	C	0.531312	0.314382	0.348236
779	H	0.547319	0.26978	0.361324
780	H	0.5475	0.324539	0.368097
781	C	0.504615	0.234873	0.656442
782	C	0.50616	0.21516	0.618817
783	C	0.503119	0.182957	0.625072
784	C	0.498372	0.170443	0.667918
785	C	0.496277	0.190327	0.371379
786	C	0.499305	0.222168	0.365737
787	H	0.004998	0.168651	0.598198
788	H	0.492959	0.181772	0.402799
789	H	0.497721	0.235999	0.393267
790	H	0.967728	0.274418	0.615412
791	N	0.511735	0.227893	0.576187
792	N	0.960982	0.335288	0.61728
793	O	0.49027	0.221894	0.549703
794	O	0.959759	0.332394	0.575708
795	O	0.536357	0.218017	0.559881
796	O	0.935476	0.327882	0.633469
797	N	0.997089	0.140813	0.677225
798	N	0.507529	0.361416	0.339836
799	C	0.667611	0.994132	0.633795
800	C	0.685339	0.472529	0.609628
801	C	0.717669	0.473876	0.612124
802	C	0.732697	0.99688	0.63718
803	C	0.714775	0.017691	0.662177
804	C	0.682566	0.016384	0.327085
805	H	0.725007	0.035094	0.346363
806	H	0.670191	0.032963	0.343221
807	C	0.764984	0.000557	0.633473
808	C	0.778777	0.007363	0.591754
809	C	0.811084	0.008672	0.588655
810	C	0.829916	0.003286	0.625917
811	C	0.81603	0.997327	0.667452
812	C	0.783886	0.996176	0.6712
813	H	0.820905	0.513027	0.558317
814	H	0.82916	0.993082	0.361613
815	H	0.774403	0.990939	0.368101
816	H	0.730308	0.458696	0.593595
817	N	0.760211	0.012934	0.553853
818	N	0.670392	0.450714	0.582068
819	O	0.765425	0.49383	0.523358
820	O	0.677659	0.454124	0.541891
821	O	0.764213	0.039607	0.538752
822	O	0.676646	0.423633	0.593615
823	N	0.859777	0.502797	0.618155
824	N	0.637841	0.995207	0.625052
825	C	0.969969	0.500138	0.954662
826	C	0.970883	0.499466	0.907452
827	C	0.528629	0.501545	0.908257
828	C	0.528869	0.002006	0.955508
829	C	0.557761	0.003578	0.977439
830	C	0.585749	0.004665	0.953714
831	C	0.58453	0.00439	0.906703
832	C	0.556442	0.50268	0.884356
833	C	0.943397	0.498133	0.882825
834	C	0.914974	0.497668	0.904393
835	C	0.912976	0.498619	0.951384
836	C	0.940743	0.999593	0.975751
837	C	0.499948	0.471482	0.675268
838	C	0.499425	0.471666	0.722501
839	C	0.497633	0.0296	0.723017
840	C	0.498103	0.03029	0.67579
841	C	0.496582	0.057364	0.747301
842	C	0.496238	0.085766	0.725297
843	C	0.496879	0.087385	0.678243
844	C	0.997658	0.059402	0.98759
845	C	0.000787	0.442584	0.986505
846	C	0.501009	0.414392	0.676606
847	C	0.50039	0.415444	0.723656
848	C	0.499743	0.443638	0.746233
849	H	0.50012	0.395674	0.742189
850	H	0.499184	0.443539	0.780313
851	H	0.496271	0.05712	0.781384
852	H	0.495762	0.105284	0.744362
853	H	0.998173	0.060093	0.953511
854	H	0.001066	0.442188	0.952412
855	H	0.558339	0.003931	0.67818
856	H	0.604125	0.005682	0.888047
857	H	0.556445	0.502551	0.850266
858	H	0.939774	3.4e-05	0.676469
859	H	0.943864	0.49747	0.848755
860	H	0.8957	0.496526	0.885055
861	C	0.999239	0.001005	0.981932
862	C	0.498292	0.00051	0.748593
863	H	0.977783	0.999794	0.769519
864	H	0.5184	0.501022	0.770337
865	C	0.999944	0.500002	0.882129
866	H	0.999349	0.020018	0.860022
867	H	0.000845	0.479233	0.861553
868	C	0.997559	0.11536	0.988978
869	C	0.884713	0.998059	0.973145
870	C	0.000892	0.386716	0.986755
871	H	0.995541	0.386415	0.954576
872	H	0.999353	0.115758	0.955997
873	H	0.88371	0.993321	0.672139
874	C	0.613661	0.007022	0.975761
875	H	0.615045	0.018736	0.670768
876	C	0.508378	0.332217	0.660975
877	C	0.98513	0.317603	0.968881
878	C	0.985432	0.285118	0.964907
879	C	0.507946	0.267238	0.986595
880	C	0.531213	0.282238	0.677617
881	C	0.531312	0.314382	0.681572
882	H	0.547319	0.26978	0.694656
883	H	0.5475	0.324539	0.701432
884	C	0.504615	0.234873	0.989774
885	C	0.50616	0.21516	0.952153
886	C	0.503119	0.182957	0.958407
887	C	0.498372	0.170443	0.001249
888	C	0.496277	0.190327	0.704714
889	C	0.499305	0.222168	0.699072
890	H	0.004998	0.168651	0.93153
891	H	0.492959	0.181772	0.736134
892	H	0.497721	0.235999	0.726599
893	H	0.967728	0.274418	0.948748
894	N	0.511735	0.227893	0.909522
895	N	0.960982	0.335288	0.950615
896	O	0.49027	0.221894	0.883035
897	O	0.959759	0.332394	0.90904
898	O	0.536357	0.218017	0.893216
899	O	0.935476	0.327882	0.966804
900	N	0.997089	0.140813	0.010557
901	N	0.507529	0.361416	0.673167
902	C	0.667611	0.994132	0.967131
903	C	0.685339	0.472529	0.942963
904	C	0.717669	0.473876	0.945456
905	C	0.732697	0.99688	0.970512
906	C	0.714775	0.017691	0.995512
907	C	0.682566	0.016384	0.660419
908	H	0.725007	0.035094	0.679698
909	H	0.670191	0.032963	0.676556
910	C	0.764984	0.000557	0.966804
911	C	0.778777	0.007363	0.925086
912	C	0.811084	0.008672	0.921987
913	C	0.829916	0.003286	0.959252
914	C	0.81603	0.997327	0.000784
915	C	0.783886	0.996176	0.004532
916	H	0.820905	0.513027	0.891648
917	H	0.82916	0.993082	0.694949
918	H	0.774403	0.990939	0.701436
919	H	0.730308	0.458696	0.926926
920	N	0.760211	0.012934	0.887188
921	N	0.670392	0.450714	0.915403
922	O	0.765425	0.49383	0.85669
923	O	0.677659	0.454124	0.875226
924	O	0.764213	0.039607	0.872087
925	O	0.676646	0.423633	0.92695
926	N	0.859777	0.502797	0.95149
927	N	0.637841	0.995207	0.958387
928	C	0.969968	0.000137	0.287993
929	C	0.970884	0.999465	0.240784
930	C	0.528628	0.001544	0.241589
931	C	0.528869	0.502005	0.288841
932	C	0.557762	0.503577	0.310772
933	C	0.58575	0.504666	0.287047
934	C	0.584531	0.50439	0.240036
935	C	0.556442	0.00268	0.217689
936	C	0.943397	0.998133	0.216157
937	C	0.914974	0.997668	0.237727
938	C	0.912976	0.998619	0.284715
939	C	0.940743	0.499592	0.309085
940	C	0.499946	0.971482	0.0086
941	C	0.499424	0.971666	0.055834
942	C	0.497634	0.5296	0.056351
943	C	0.498101	0.530288	0.009124
944	C	0.496581	0.557363	0.080632
945	C	0.496238	0.585767	0.058629
946	C	0.49688	0.587385	0.011575
947	C	0.997656	0.559401	0.320922
948	C	0.000787	0.942583	0.319836
949	C	0.501009	0.914392	0.009937
950	C	0.500391	0.915444	0.056987
951	C	0.499741	0.943638	0.079566
952	H	0.500121	0.895674	0.07552
953	H	0.499184	0.943539	0.113645
954	H	0.496271	0.557119	0.114718
955	H	0.495763	0.605284	0.077694
956	H	0.998172	0.560094	0.286844
957	H	0.001066	0.942187	0.285746
958	H	0.558339	0.503932	0.011513
959	H	0.604126	0.505681	0.22138
960	H	0.556444	0.00255	0.183598
961	H	0.939774	0.500034	0.009802
962	H	0.943865	0.99747	0.182088
963	H	0.8957	0.996526	0.218388
964	C	0.99924	0.501006	0.315263
965	C	0.498292	0.500511	0.081924
966	H	0.977784	0.499795	0.102852
967	H	0.518402	0.001023	0.103669
968	C	0.999944	3e-06	0.215461
969	H	0.999349	0.520019	0.193355
970	H	0.000845	0.979233	0.194886
971	C	0.99756	0.61536	0.322311
972	C	0.884715	0.498057	0.306477
973	C	0.000892	0.886716	0.320089
974	H	0.995542	0.886415	0.287908
975	H	0.999353	0.615758	0.289331
976	H	0.883712	0.493322	0.005472
977	C	0.61366	0.507021	0.309095
978	H	0.615043	0.518737	0.004101
979	C	0.508379	0.832217	0.994307
980	C	0.985129	0.817605	0.302214
981	C	0.985432	0.785118	0.29824
982	C	0.507946	0.767238	0.319926
983	C	0.531213	0.782238	0.010951
984	C	0.531311	0.814382	0.014904
985	H	0.547319	0.769779	0.027988
986	H	0.5475	0.824539	0.034764
987	C	0.504616	0.734873	0.323108
988	C	0.506161	0.71516	0.285484
989	C	0.50312	0.682956	0.291738
990	C	0.498373	0.670442	0.334583
991	C	0.496275	0.690327	0.038046
992	C	0.499305	0.722168	0.032405
993	H	0.004998	0.668651	0.264864
994	H	0.49296	0.681773	0.069466
995	H	0.497719	0.736001	0.059932
996	H	0.967728	0.77442	0.28208
997	N	0.511735	0.727893	0.242855
998	N	0.96098	0.835288	0.283946
999	O	0.490271	0.721894	0.216368
1000	O	0.959759	0.832394	0.242373
1001	O	0.536355	0.718017	0.226548
1002	O	0.935474	0.827882	0.300137
1003	N	0.997087	0.640814	0.34389
1004	N	0.507528	0.861416	0.006501
1005	C	0.667613	0.494132	0.300463
1006	C	0.68534	0.972529	0.276295
1007	C	0.717669	0.973876	0.27879
1008	C	0.732696	0.496881	0.303846
1009	C	0.714775	0.517691	0.328845
1010	C	0.682565	0.516384	0.993751
1011	H	0.725008	0.535093	0.01303
1012	H	0.670189	0.532964	0.009888
1013	C	0.764985	0.500557	0.300138
1014	C	0.778778	0.507364	0.258419
1015	C	0.811082	0.508672	0.25532
1016	C	0.829917	0.503287	0.292584
1017	C	0.81603	0.497327	0.334117
1018	C	0.783886	0.496176	0.337865
1019	H	0.820907	0.013028	0.224982
1020	H	0.829159	0.493082	0.028281
1021	H	0.774402	0.490939	0.034768
1022	H	0.730309	0.958696	0.26026
1023	N	0.760209	0.512935	0.220521
1024	N	0.670392	0.950714	0.248736
1025	O	0.765423	0.99383	0.190024
1026	O	0.67766	0.954124	0.208558
1027	O	0.764213	0.539607	0.20542
1028	O	0.676644	0.923633	0.260282
1029	N	0.859776	0.002797	0.284823
1030	N	0.63784	0.495207	0.291719
1031	C	0.969968	0.000137	0.621327
1032	C	0.970884	0.999465	0.574117
1033	C	0.528628	0.001544	0.574922
1034	C	0.528869	0.502005	0.622176
1035	C	0.557762	0.503577	0.644107
1036	C	0.58575	0.504666	0.620382
1037	C	0.584531	0.50439	0.573371
1038	C	0.556442	0.00268	0.551021
1039	C	0.943397	0.998133	0.54949
1040	C	0.914974	0.997668	0.571061
1041	C	0.912976	0.998619	0.618049
1042	C	0.940743	0.499592	0.642419
1043	C	0.499946	0.971482	0.341936
1044	C	0.499424	0.971666	0.389166
1045	C	0.497634	0.5296	0.389685
1046	C	0.498101	0.530288	0.342458
1047	C	0.496581	0.557363	0.413966
1048	C	0.496238	0.585767	0.391962
1049	C	0.49688	0.587385	0.344908
1050	C	0.997656	0.559401	0.654255
1051	C	0.000787	0.942583	0.65317
1052	C	0.501009	0.914392	0.34327
1053	C	0.500391	0.915444	0.390321
1054	C	0.499741	0.943638	0.412901
1055	H	0.500121	0.895674	0.408854
1056	H	0.499184	0.943539	0.446978
1057	H	0.496271	0.557119	0.448053
1058	H	0.495763	0.605284	0.411027
1059	H	0.998172	0.560094	0.620179
1060	H	0.001066	0.942187	0.61908
1061	H	0.558339	0.503932	0.344845
1062	H	0.604126	0.505681	0.554712
1063	H	0.556444	0.00255	0.516931
1064	H	0.939774	0.500034	0.343137
1065	H	0.943865	0.99747	0.515423
1066	H	0.8957	0.996526	0.55172
1067	C	0.99924	0.501006	0.648597
1068	C	0.498292	0.500511	0.415258
1069	H	0.977784	0.499795	0.436187
1070	H	0.518402	0.001023	0.437002
1071	C	0.999944	3e-06	0.548794
1072	H	0.999349	0.520019	0.52669
1073	H	0.000845	0.979233	0.528221
1074	C	0.99756	0.61536	0.655643
1075	C	0.884715	0.498057	0.63981
1076	C	0.000892	0.886716	0.653423
1077	H	0.995542	0.886415	0.621244
1078	H	0.999353	0.615758	0.622665
1079	H	0.883712	0.493322	0.338807
1080	C	0.61366	0.507021	0.642429
1081	H	0.615043	0.518737	0.337436
1082	C	0.508379	0.832217	0.327641
1083	C	0.985129	0.817605	0.635546
1084	C	0.985432	0.785118	0.631575
1085	C	0.507946	0.767238	0.65326
1086	C	0.531213	0.782238	0.344286
1087	C	0.531311	0.814382	0.348236
1088	H	0.547319	0.769779	0.361324
1089	H	0.5475	0.824539	0.368097
1090	C	0.504616	0.734873	0.656442
1091	C	0.506161	0.71516	0.618817
1092	C	0.50312	0.682956	0.625072
1093	C	0.498373	0.670442	0.667918
1094	C	0.496275	0.690327	0.371379
1095	C	0.499305	0.722168	0.365737
1096	H	0.004998	0.668651	0.598198
1097	H	0.49296	0.681773	0.402799
1098	H	0.497719	0.736001	0.393267
1099	H	0.967728	0.77442	0.615412
1100	N	0.511735	0.727893	0.576187
1101	N	0.96098	0.835288	0.61728
1102	O	0.490271	0.721894	0.549703
1103	O	0.959759	0.832394	0.575708
1104	O	0.536355	0.718017	0.559881
1105	O	0.935474	0.827882	0.633469
1106	N	0.997087	0.640814	0.677225
1107	N	0.507528	0.861416	0.339836
1108	C	0.667613	0.494132	0.633795
1109	C	0.68534	0.972529	0.609628
1110	C	0.717669	0.973876	0.612124
1111	C	0.732696	0.496881	0.63718
1112	C	0.714775	0.517691	0.662177
1113	C	0.682565	0.516384	0.327085
1114	H	0.725008	0.535093	0.346363
1115	H	0.670189	0.532964	0.343221
1116	C	0.764985	0.500557	0.633473
1117	C	0.778778	0.507364	0.591754
1118	C	0.811082	0.508672	0.588655
1119	C	0.829917	0.503287	0.625917
1120	C	0.81603	0.497327	0.667452
1121	C	0.783886	0.496176	0.6712
1122	H	0.820907	0.013028	0.558317
1123	H	0.829159	0.493082	0.361613
1124	H	0.774402	0.490939	0.368101
1125	H	0.730309	0.958696	0.593595
1126	N	0.760209	0.512935	0.553853
1127	N	0.670392	0.950714	0.582068
1128	O	0.765423	0.99383	0.523358
1129	O	0.67766	0.954124	0.541891
1130	O	0.764213	0.539607	0.538752
1131	O	0.676644	0.923633	0.593615
1132	N	0.859776	0.002797	0.618155
1133	N	0.63784	0.495207	0.625052
1134	C	0.969968	0.000137	0.954662
1135	C	0.970884	0.999465	0.907452
1136	C	0.528628	0.001544	0.908257
1137	C	0.528869	0.502005	0.955508
1138	C	0.557762	0.503577	0.977439
1139	C	0.58575	0.504666	0.953714
1140	C	0.584531	0.50439	0.906703
1141	C	0.556442	0.00268	0.884356
1142	C	0.943397	0.998133	0.882825
1143	C	0.914974	0.997668	0.904393
1144	C	0.912976	0.998619	0.951384
1145	C	0.940743	0.499592	0.975751
1146	C	0.499946	0.971482	0.675268
1147	C	0.499424	0.971666	0.722501
1148	C	0.497634	0.5296	0.723017
1149	C	0.498101	0.530288	0.67579
1150	C	0.496581	0.557363	0.747301
1151	C	0.496238	0.585767	0.725297
1152	C	0.49688	0.587385	0.678243
1153	C	0.997656	0.559401	0.98759
1154	C	0.000787	0.942583	0.986505
1155	C	0.501009	0.914392	0.676606
1156	C	0.500391	0.915444	0.723656
1157	C	0.499741	0.943638	0.746233
1158	H	0.500121	0.895674	0.742189
1159	H	0.499184	0.943539	0.780313
1160	H	0.496271	0.557119	0.781384
1161	H	0.495763	0.605284	0.744362
1162	H	0.998172	0.560094	0.953511
1163	H	0.001066	0.942187	0.952412
1164	H	0.558339	0.503932	0.67818
1165	H	0.604126	0.505681	0.888047
1166	H	0.556444	0.00255	0.850266
1167	H	0.939774	0.500034	0.676469
1168	H	0.943865	0.99747	0.848755
1169	H	0.8957	0.996526	0.885055
1170	C	0.99924	0.501006	0.981932
1171	C	0.498292	0.500511	0.748593
1172	H	0.977784	0.499795	0.769519
1173	H	0.518402	0.001023	0.770337
1174	C	0.999944	3e-06	0.882129
1175	H	0.999349	0.520019	0.860022
1176	H	0.000845	0.979233	0.861553
1177	C	0.99756	0.61536	0.988978
1178	C	0.884715	0.498057	0.973145
1179	C	0.000892	0.886716	0.986755
1180	H	0.995542	0.886415	0.954576
1181	H	0.999353	0.615758	0.955997
1182	H	0.883712	0.493322	0.672139
1183	C	0.61366	0.507021	0.975761
1184	H	0.615043	0.518737	0.670768
1185	C	0.508379	0.832217	0.660975
1186	C	0.985129	0.817605	0.968881
1187	C	0.985432	0.785118	0.964907
1188	C	0.507946	0.767238	0.986595
1189	C	0.531213	0.782238	0.677617
1190	C	0.531311	0.814382	0.681572
1191	H	0.547319	0.769779	0.694656
1192	H	0.5475	0.824539	0.701432
1193	C	0.504616	0.734873	0.989774
1194	C	0.506161	0.71516	0.952153
1195	C	0.50312	0.682956	0.958407
1196	C	0.498373	0.670442	0.001249
1197	C	0.496275	0.690327	0.704714
1198	C	0.499305	0.722168	0.699072
1199	H	0.004998	0.668651	0.93153
1200	H	0.49296	0.681773	0.736134
1201	H	0.497719	0.736001	0.726599
1202	H	0.967728	0.77442	0.948748
1203	N	0.511735	0.727893	0.909522
1204	N	0.96098	0.835288	0.950615
1205	O	0.490271	0.721894	0.883035
1206	O	0.959759	0.832394	0.90904
1207	O	0.536355	0.718017	0.893216
1208	O	0.935474	0.827882	0.966804
1209	N	0.997087	0.640814	0.010557
1210	N	0.507528	0.861416	0.673167
1211	C	0.667613	0.494132	0.967131
1212	C	0.68534	0.972529	0.942963
1213	C	0.717669	0.973876	0.945456
1214	C	0.732696	0.496881	0.970512
1215	C	0.714775	0.517691	0.995512
1216	C	0.682565	0.516384	0.660419
1217	H	0.725008	0.535093	0.679698
1218	H	0.670189	0.532964	0.676556
1219	C	0.764985	0.500557	0.966804
1220	C	0.778778	0.507364	0.925086
1221	C	0.811082	0.508672	0.921987
1222	C	0.829917	0.503287	0.959252
1223	C	0.81603	0.497327	0.000784
1224	C	0.783886	0.496176	0.004532
1225	H	0.820907	0.013028	0.891648
1226	H	0.829159	0.493082	0.694949
1227	H	0.774402	0.490939	0.701436
1228	H	0.730309	0.958696	0.926926
1229	N	0.760209	0.512935	0.887188
1230	N	0.670392	0.950714	0.915403
1231	O	0.765423	0.99383	0.85669
1232	O	0.67766	0.954124	0.875226
1233	O	0.764213	0.539607	0.872087
1234	O	0.676644	0.923633	0.92695
1235	N	0.859776	0.002797	0.95149
1236	N	0.63784	0.495207	0.958387
