data_C360H216N216O108_2018-02-15_10:32:36
#******************************************
#
# CIF file created by Zeo++
# Zeo++ is an open source package to
# analyze microporous materials
#
#*******************************************

_cell_length_a		43.17   
_cell_length_b		43.17   
_cell_length_c		30.0992   
_cell_angle_alpha		90   
_cell_angle_beta		90   
_cell_angle_gamma		120   

_symmetry_space_group_name_H-M		'P1'
_symmetry_Int_Tables_number		1
_symmetry_cell_setting		Monoclinic

loop_
_symmetry_equiv_pos_as_xyz
'+x,+y,+z'

loop_
_atom_site_label
_atom_site_type_symbol
_atom_site_fract_x
_atom_site_fract_y
_atom_site_fract_z
1	C	0.128353	0.320564	0.299019
2	N	0.153301	0.355893	0.966047
3	C	0.188915	0.367533	0.965741
4	N	0.199302	0.342591	0.96609
5	C	0.175333	0.306974	0.965724
6	N	0.140004	0.296596	0.966037
7	C	0.214452	0.403921	0.971173
8	C	0.186185	0.28144	0.971167
9	C	0.091959	0.309697	0.971067
10	O	0.159803	0.246853	0.975246
11	O	0.083766	0.336083	0.975233
12	O	0.249036	0.412119	0.97528
13	C	0.366802	0.176397	0.382828
14	N	0.342011	0.141024	0.049148
15	C	0.306331	0.129132	0.04943
16	N	0.29575	0.153921	0.049142
17	C	0.319538	0.189598	0.049478
18	N	0.354911	0.200186	0.049195
19	C	0.280955	0.09259	0.044725
20	C	0.308374	0.21498	0.044816
21	C	0.403344	0.187545	0.044831
22	O	0.334519	0.24966	0.040777
23	O	0.411863	0.161391	0.040755
24	O	0.246276	0.084056	0.040695
25	C	0.2596	0.226283	0.027133
26	N	0.281726	0.259673	0.344076
27	C	0.270707	0.281504	0.326834
28	C	0.233759	0.269385	0.324496
29	N	0.211646	0.236248	0.007961
30	C	0.222313	0.214082	0.025512
31	H	0.289309	0.30623	0.315473
32	C	0.19641	0.181748	0.043149
33	C	0.18751	0.181262	0.089658
34	H	0.17069	0.153731	0.100958
35	H	0.173046	0.195753	0.094761
36	H	0.211627	0.193507	0.110145
37	O	0.171299	0.163562	0.018316
38	N	0.221252	0.290692	0.308855
39	H	0.239208	0.315298	0.30174
40	N	0.273153	0.205438	0.041562
41	H	0.255825	0.180647	0.04842
42	C	0.269642	0.032506	0.027088
43	N	0.236263	0.021254	0.344003
44	C	0.214421	0.488399	0.326776
45	C	0.226528	0.463561	0.324465
46	N	0.259652	0.47457	0.007961
47	C	0.281823	0.007403	0.02551
48	H	0.189714	0.482295	0.315365
49	C	0.314142	0.01382	0.043187
50	C	0.314598	0.00543	0.08971
51	H	0.34212	0.016129	0.101034
52	H	0.300086	0.976479	0.09484
53	H	0.30236	0.017331	0.110159
54	O	0.332325	0.506863	0.018394
55	N	0.205213	0.429746	0.30882
56	H	0.180609	0.423099	0.301699
57	N	0.290495	0.066906	0.041505
58	H	0.315283	0.074364	0.048379
59	C	0.463431	0.236308	0.027182
60	N	0.474662	0.214175	0.344056
61	C	0.007503	0.225185	0.326779
62	C	0.032337	0.262131	0.324427
63	N	0.021352	0.284243	0.007998
64	C	0.488546	0.27359	0.025617
65	H	0.013595	0.20658	0.315341
66	C	0.482189	0.299471	0.043336
67	C	0.490091	0.308151	0.090011
68	H	0.479202	0.324844	0.101206
69	H	0.518989	0.32261	0.095599
70	H	0.478052	0.283906	0.110275
71	O	0.989638	0.325103	0.019185
72	N	0.066145	0.274633	0.308765
73	H	0.072787	0.256675	0.301618
74	N	0.429038	0.222764	0.041632
75	H	0.421587	0.240097	0.048511
76	C	0.128353	0.320564	0.632353
77	N	0.153301	0.355893	0.29938
78	C	0.188915	0.367533	0.299077
79	N	0.199302	0.342591	0.299423
80	C	0.175333	0.306974	0.299058
81	N	0.140004	0.296596	0.299372
82	C	0.214452	0.403921	0.304506
83	C	0.186185	0.28144	0.304502
84	C	0.091959	0.309697	0.3044
85	O	0.159803	0.246853	0.308581
86	O	0.083766	0.336083	0.308568
87	O	0.249036	0.412119	0.308615
88	C	0.366802	0.176397	0.716159
89	N	0.342011	0.141024	0.382482
90	C	0.306331	0.129132	0.382761
91	N	0.29575	0.153921	0.382476
92	C	0.319538	0.189598	0.382811
93	N	0.354911	0.200186	0.382529
94	C	0.280955	0.09259	0.378057
95	C	0.308374	0.21498	0.37815
96	C	0.403344	0.187545	0.378163
97	O	0.334519	0.24966	0.37411
98	O	0.411863	0.161391	0.374087
99	O	0.246276	0.084056	0.374027
100	C	0.2596	0.226283	0.360465
101	N	0.281726	0.259673	0.677411
102	C	0.270707	0.281504	0.660168
103	C	0.233759	0.269385	0.657829
104	N	0.211646	0.236248	0.341295
105	C	0.222313	0.214082	0.358844
106	H	0.289309	0.30623	0.648805
107	C	0.19641	0.181748	0.376482
108	C	0.18751	0.181262	0.422992
109	H	0.17069	0.153731	0.434291
110	H	0.173046	0.195753	0.428095
111	H	0.211627	0.193507	0.443477
112	O	0.171299	0.163562	0.351648
113	N	0.221252	0.290692	0.642187
114	H	0.239208	0.315298	0.635074
115	N	0.273153	0.205438	0.374894
116	H	0.255825	0.180647	0.381755
117	C	0.269642	0.032506	0.360422
118	N	0.236263	0.021254	0.677334
119	C	0.214421	0.488399	0.660108
120	C	0.226528	0.463561	0.657799
121	N	0.259652	0.47457	0.341295
122	C	0.281823	0.007403	0.358844
123	H	0.189714	0.482295	0.648699
124	C	0.314142	0.01382	0.376519
125	C	0.314598	0.00543	0.423042
126	H	0.34212	0.016129	0.434368
127	H	0.300086	0.976479	0.428175
128	H	0.30236	0.017331	0.443491
129	O	0.332325	0.506863	0.351727
130	N	0.205213	0.429746	0.642154
131	H	0.180609	0.423099	0.635031
132	N	0.290495	0.066906	0.374838
133	H	0.315283	0.074364	0.381712
134	C	0.463431	0.236308	0.360515
135	N	0.474662	0.214175	0.677388
136	C	0.007503	0.225185	0.660111
137	C	0.032337	0.262131	0.657759
138	N	0.021352	0.284243	0.341332
139	C	0.488546	0.27359	0.35895
140	H	0.013595	0.20658	0.648673
141	C	0.482189	0.299471	0.376668
142	C	0.490091	0.308151	0.423344
143	H	0.479202	0.324844	0.43454
144	H	0.518989	0.32261	0.428932
145	H	0.478052	0.283906	0.443607
146	O	0.989638	0.325103	0.352518
147	N	0.066145	0.274633	0.642098
148	H	0.072787	0.256675	0.634951
149	N	0.429038	0.222764	0.374964
150	H	0.421587	0.240097	0.381844
151	C	0.128353	0.320564	0.965685
152	N	0.153301	0.355893	0.632712
153	C	0.188915	0.367533	0.63241
154	N	0.199302	0.342591	0.632755
155	C	0.175333	0.306974	0.63239
156	N	0.140004	0.296596	0.632705
157	C	0.214452	0.403921	0.637838
158	C	0.186185	0.28144	0.637835
159	C	0.091959	0.309697	0.637732
160	O	0.159803	0.246853	0.641915
161	O	0.083766	0.336083	0.641902
162	O	0.249036	0.412119	0.641948
163	C	0.366802	0.176397	0.049495
164	N	0.342011	0.141024	0.715814
165	C	0.306331	0.129132	0.716096
166	N	0.29575	0.153921	0.715807
167	C	0.319538	0.189598	0.716143
168	N	0.354911	0.200186	0.71586
169	C	0.280955	0.09259	0.711392
170	C	0.308374	0.21498	0.711482
171	C	0.403344	0.187545	0.711498
172	O	0.334519	0.24966	0.707442
173	O	0.411863	0.161391	0.707422
174	O	0.246276	0.084056	0.707362
175	C	0.2596	0.226283	0.6938
176	N	0.281726	0.259673	0.010744
177	C	0.270707	0.281504	0.993499
178	C	0.233759	0.269385	0.99116
179	N	0.211646	0.236248	0.674627
180	C	0.222313	0.214082	0.692179
181	H	0.289309	0.30623	0.98214
182	C	0.19641	0.181748	0.709814
183	C	0.18751	0.181262	0.756323
184	H	0.17069	0.153731	0.767623
185	H	0.173046	0.195753	0.761426
186	H	0.211627	0.193507	0.776812
187	O	0.171299	0.163562	0.684982
188	N	0.221252	0.290692	0.975522
189	H	0.239208	0.315298	0.968406
190	N	0.273153	0.205438	0.708229
191	H	0.255825	0.180647	0.715086
192	C	0.269642	0.032506	0.693753
193	N	0.236263	0.021254	0.010668
194	C	0.214421	0.488399	0.993443
195	C	0.226528	0.463561	0.991131
196	N	0.259652	0.47457	0.674627
197	C	0.281823	0.007403	0.692175
198	H	0.189714	0.482295	0.982031
199	C	0.314142	0.01382	0.709854
200	C	0.314598	0.00543	0.756376
201	H	0.34212	0.016129	0.767699
202	H	0.300086	0.976479	0.761506
203	H	0.30236	0.017331	0.776826
204	O	0.332325	0.506863	0.685059
205	N	0.205213	0.429746	0.975486
206	H	0.180609	0.423099	0.968366
207	N	0.290495	0.066906	0.708172
208	H	0.315283	0.074364	0.715043
209	C	0.463431	0.236308	0.693847
210	N	0.474662	0.214175	0.010723
211	C	0.007503	0.225185	0.993446
212	C	0.032337	0.262131	0.991094
213	N	0.021352	0.284243	0.674663
214	C	0.488546	0.27359	0.692282
215	H	0.013595	0.20658	0.982007
216	C	0.482189	0.299471	0.710003
217	C	0.490091	0.308151	0.756679
218	H	0.479202	0.324844	0.767872
219	H	0.518989	0.32261	0.762264
220	H	0.478052	0.283906	0.776942
221	O	0.989638	0.325103	0.68585
222	N	0.066145	0.274633	0.975432
223	H	0.072787	0.256675	0.968283
224	N	0.429038	0.222764	0.708299
225	H	0.421587	0.240097	0.715176
226	C	0.128353	0.820566	0.299019
227	N	0.153303	0.855895	0.966047
228	C	0.188916	0.867533	0.965741
229	N	0.199303	0.842593	0.96609
230	C	0.175334	0.806976	0.965724
231	N	0.140005	0.796595	0.966037
232	C	0.214453	0.90392	0.971173
233	C	0.186186	0.781442	0.971167
234	C	0.091961	0.809698	0.971067
235	O	0.159804	0.746855	0.975246
236	O	0.083765	0.836082	0.975233
237	O	0.249037	0.912121	0.97528
238	C	0.366803	0.676398	0.382828
239	N	0.342012	0.641024	0.049148
240	C	0.306332	0.629132	0.04943
241	N	0.29575	0.653922	0.049142
242	C	0.319538	0.689598	0.049478
243	N	0.354913	0.700188	0.049195
244	C	0.280956	0.592589	0.044725
245	C	0.308376	0.714982	0.044816
246	C	0.403345	0.687547	0.044831
247	O	0.33452	0.74966	0.040777
248	O	0.411862	0.66139	0.040755
249	O	0.246277	0.584057	0.040695
250	C	0.2596	0.726283	0.027133
251	N	0.281727	0.759675	0.344076
252	C	0.270708	0.781506	0.326834
253	C	0.233759	0.769384	0.324496
254	N	0.211647	0.736249	0.007961
255	C	0.222313	0.714083	0.025512
256	H	0.28931	0.806232	0.315473
257	C	0.19641	0.681748	0.043149
258	C	0.18751	0.681264	0.089658
259	H	0.170691	0.653732	0.100958
260	H	0.173046	0.695753	0.094761
261	H	0.211628	0.693509	0.110145
262	O	0.171299	0.663562	0.018316
263	N	0.221251	0.790691	0.308855
264	H	0.239209	0.815299	0.30174
265	N	0.273154	0.705438	0.041562
266	H	0.255826	0.680648	0.04842
267	C	0.269642	0.532506	0.027088
268	N	0.236264	0.521256	0.344003
269	C	0.214423	0.9884	0.326776
270	C	0.226526	0.96356	0.324465
271	N	0.259653	0.974572	0.007961
272	C	0.281823	0.507403	0.02551
273	H	0.189714	0.982297	0.315365
274	C	0.314141	0.51382	0.043187
275	C	0.314598	0.505429	0.08971
276	H	0.342121	0.516128	0.101034
277	H	0.300086	0.47648	0.09484
278	H	0.30236	0.517332	0.110159
279	O	0.332323	0.006861	0.018394
280	N	0.205214	0.929748	0.30882
281	H	0.18061	0.923101	0.301699
282	N	0.290495	0.566906	0.041505
283	H	0.315281	0.574363	0.048379
284	C	0.463431	0.736308	0.027182
285	N	0.474664	0.714177	0.344056
286	C	0.007504	0.725186	0.326779
287	C	0.032338	0.762133	0.324427
288	N	0.021354	0.784245	0.007998
289	C	0.488546	0.773589	0.025617
290	H	0.013596	0.70658	0.315341
291	C	0.482189	0.79947	0.043336
292	C	0.490092	0.80815	0.090011
293	H	0.479204	0.824846	0.101206
294	H	0.518988	0.82261	0.095599
295	H	0.478053	0.783906	0.110275
296	O	0.989637	0.825103	0.019185
297	N	0.066144	0.774632	0.308765
298	H	0.072788	0.756676	0.301618
299	N	0.429039	0.722765	0.041632
300	H	0.421588	0.740098	0.048511
301	C	0.128353	0.820566	0.632353
302	N	0.153303	0.855895	0.29938
303	C	0.188916	0.867533	0.299077
304	N	0.199303	0.842593	0.299423
305	C	0.175334	0.806976	0.299058
306	N	0.140005	0.796595	0.299372
307	C	0.214453	0.90392	0.304506
308	C	0.186186	0.781442	0.304502
309	C	0.091961	0.809698	0.3044
310	O	0.159804	0.746855	0.308581
311	O	0.083765	0.836082	0.308568
312	O	0.249037	0.912121	0.308615
313	C	0.366803	0.676398	0.716159
314	N	0.342012	0.641024	0.382482
315	C	0.306332	0.629132	0.382761
316	N	0.29575	0.653922	0.382476
317	C	0.319538	0.689598	0.382811
318	N	0.354913	0.700188	0.382529
319	C	0.280956	0.592589	0.378057
320	C	0.308376	0.714982	0.37815
321	C	0.403345	0.687547	0.378163
322	O	0.33452	0.74966	0.37411
323	O	0.411862	0.66139	0.374087
324	O	0.246277	0.584057	0.374027
325	C	0.2596	0.726283	0.360465
326	N	0.281727	0.759675	0.677411
327	C	0.270708	0.781506	0.660168
328	C	0.233759	0.769384	0.657829
329	N	0.211647	0.736249	0.341295
330	C	0.222313	0.714083	0.358844
331	H	0.28931	0.806232	0.648805
332	C	0.19641	0.681748	0.376482
333	C	0.18751	0.681264	0.422992
334	H	0.170691	0.653732	0.434291
335	H	0.173046	0.695753	0.428095
336	H	0.211628	0.693509	0.443477
337	O	0.171299	0.663562	0.351648
338	N	0.221251	0.790691	0.642187
339	H	0.239209	0.815299	0.635074
340	N	0.273154	0.705438	0.374894
341	H	0.255826	0.680648	0.381755
342	C	0.269642	0.532506	0.360422
343	N	0.236264	0.521256	0.677334
344	C	0.214423	0.9884	0.660108
345	C	0.226526	0.96356	0.657799
346	N	0.259653	0.974572	0.341295
347	C	0.281823	0.507403	0.358844
348	H	0.189714	0.982297	0.648699
349	C	0.314141	0.51382	0.376519
350	C	0.314598	0.505429	0.423042
351	H	0.342121	0.516128	0.434368
352	H	0.300086	0.47648	0.428175
353	H	0.30236	0.517332	0.443491
354	O	0.332323	0.006861	0.351727
355	N	0.205214	0.929748	0.642154
356	H	0.18061	0.923101	0.635031
357	N	0.290495	0.566906	0.374838
358	H	0.315281	0.574363	0.381712
359	C	0.463431	0.736308	0.360515
360	N	0.474664	0.714177	0.677388
361	C	0.007504	0.725186	0.660111
362	C	0.032338	0.762133	0.657759
363	N	0.021354	0.784245	0.341332
364	C	0.488546	0.773589	0.35895
365	H	0.013596	0.70658	0.648673
366	C	0.482189	0.79947	0.376668
367	C	0.490092	0.80815	0.423344
368	H	0.479204	0.824846	0.43454
369	H	0.518988	0.82261	0.428932
370	H	0.478053	0.783906	0.443607
371	O	0.989637	0.825103	0.352518
372	N	0.066144	0.774632	0.642098
373	H	0.072788	0.756676	0.634951
374	N	0.429039	0.722765	0.374964
375	H	0.421588	0.740098	0.381844
376	C	0.128353	0.820566	0.965685
377	N	0.153303	0.855895	0.632712
378	C	0.188916	0.867533	0.63241
379	N	0.199303	0.842593	0.632755
380	C	0.175334	0.806976	0.63239
381	N	0.140005	0.796595	0.632705
382	C	0.214453	0.90392	0.637838
383	C	0.186186	0.781442	0.637835
384	C	0.091961	0.809698	0.637732
385	O	0.159804	0.746855	0.641915
386	O	0.083765	0.836082	0.641902
387	O	0.249037	0.912121	0.641948
388	C	0.366803	0.676398	0.049495
389	N	0.342012	0.641024	0.715814
390	C	0.306332	0.629132	0.716096
391	N	0.29575	0.653922	0.715807
392	C	0.319538	0.689598	0.716143
393	N	0.354913	0.700188	0.71586
394	C	0.280956	0.592589	0.711392
395	C	0.308376	0.714982	0.711482
396	C	0.403345	0.687547	0.711498
397	O	0.33452	0.74966	0.707442
398	O	0.411862	0.66139	0.707422
399	O	0.246277	0.584057	0.707362
400	C	0.2596	0.726283	0.6938
401	N	0.281727	0.759675	0.010744
402	C	0.270708	0.781506	0.993499
403	C	0.233759	0.769384	0.99116
404	N	0.211647	0.736249	0.674627
405	C	0.222313	0.714083	0.692179
406	H	0.28931	0.806232	0.98214
407	C	0.19641	0.681748	0.709814
408	C	0.18751	0.681264	0.756323
409	H	0.170691	0.653732	0.767623
410	H	0.173046	0.695753	0.761426
411	H	0.211628	0.693509	0.776812
412	O	0.171299	0.663562	0.684982
413	N	0.221251	0.790691	0.975522
414	H	0.239209	0.815299	0.968406
415	N	0.273154	0.705438	0.708229
416	H	0.255826	0.680648	0.715086
417	C	0.269642	0.532506	0.693753
418	N	0.236264	0.521256	0.010668
419	C	0.214423	0.9884	0.993443
420	C	0.226526	0.96356	0.991131
421	N	0.259653	0.974572	0.674627
422	C	0.281823	0.507403	0.692175
423	H	0.189714	0.982297	0.982031
424	C	0.314141	0.51382	0.709854
425	C	0.314598	0.505429	0.756376
426	H	0.342121	0.516128	0.767699
427	H	0.300086	0.47648	0.761506
428	H	0.30236	0.517332	0.776826
429	O	0.332323	0.006861	0.685059
430	N	0.205214	0.929748	0.975486
431	H	0.18061	0.923101	0.968366
432	N	0.290495	0.566906	0.708172
433	H	0.315281	0.574363	0.715043
434	C	0.463431	0.736308	0.693847
435	N	0.474664	0.714177	0.010723
436	C	0.007504	0.725186	0.993446
437	C	0.032338	0.762133	0.991094
438	N	0.021354	0.784245	0.674663
439	C	0.488546	0.773589	0.692282
440	H	0.013596	0.70658	0.982007
441	C	0.482189	0.79947	0.710003
442	C	0.490092	0.80815	0.756679
443	H	0.479204	0.824846	0.767872
444	H	0.518988	0.82261	0.762264
445	H	0.478053	0.783906	0.776942
446	O	0.989637	0.825103	0.68585
447	N	0.066144	0.774632	0.975432
448	H	0.072788	0.756676	0.968283
449	N	0.429039	0.722765	0.708299
450	H	0.421588	0.740098	0.715176
451	C	0.628353	0.320564	0.299019
452	N	0.6533	0.355893	0.966047
453	C	0.688916	0.367533	0.965741
454	N	0.699301	0.342591	0.96609
455	C	0.675333	0.306974	0.965724
456	N	0.640003	0.296596	0.966037
457	C	0.714453	0.403921	0.971173
458	C	0.686185	0.28144	0.971167
459	C	0.59196	0.309697	0.971067
460	O	0.659804	0.246853	0.975246
461	O	0.583766	0.336083	0.975233
462	O	0.749036	0.412119	0.97528
463	C	0.866802	0.176397	0.382828
464	N	0.842011	0.141024	0.049148
465	C	0.806331	0.129132	0.04943
466	N	0.795749	0.153921	0.049142
467	C	0.819539	0.189598	0.049478
468	N	0.854911	0.200186	0.049195
469	C	0.780955	0.09259	0.044725
470	C	0.808375	0.21498	0.044816
471	C	0.903344	0.187545	0.044831
472	O	0.83452	0.24966	0.040777
473	O	0.911863	0.161391	0.040755
474	O	0.746276	0.084056	0.040695
475	C	0.759599	0.226283	0.027133
476	N	0.781727	0.259673	0.344076
477	C	0.770706	0.281504	0.326834
478	C	0.733759	0.269385	0.324496
479	N	0.711645	0.236248	0.007961
480	C	0.722313	0.214082	0.025512
481	H	0.789309	0.30623	0.315473
482	C	0.69641	0.181748	0.043149
483	C	0.687508	0.181262	0.089658
484	H	0.67069	0.153731	0.100958
485	H	0.673045	0.195753	0.094761
486	H	0.711627	0.193507	0.110145
487	O	0.671299	0.163562	0.018316
488	N	0.721251	0.290692	0.308855
489	H	0.739208	0.315298	0.30174
490	N	0.773152	0.205438	0.041562
491	H	0.755825	0.180647	0.04842
492	C	0.769642	0.032506	0.027088
493	N	0.736263	0.021254	0.344003
494	C	0.714419	0.488399	0.326776
495	C	0.726527	0.463561	0.324465
496	N	0.75965	0.47457	0.007961
497	C	0.781823	0.007403	0.02551
498	H	0.689714	0.482295	0.315365
499	C	0.814142	0.01382	0.043187
500	C	0.814598	0.00543	0.08971
501	H	0.84212	0.016129	0.101034
502	H	0.800086	0.976479	0.09484
503	H	0.802358	0.017331	0.110159
504	O	0.832324	0.506863	0.018394
505	N	0.705214	0.429746	0.30882
506	H	0.680609	0.423099	0.301699
507	N	0.790495	0.066906	0.041505
508	H	0.81528	0.074364	0.048379
509	C	0.963431	0.236308	0.027182
510	N	0.974662	0.214175	0.344056
511	C	0.507503	0.225185	0.326779
512	C	0.532337	0.262131	0.324427
513	N	0.521353	0.284243	0.007998
514	C	0.988546	0.27359	0.025617
515	H	0.513594	0.20658	0.315341
516	C	0.982189	0.299471	0.043336
517	C	0.990091	0.308151	0.090011
518	H	0.979202	0.324844	0.101206
519	H	0.018988	0.32261	0.095599
520	H	0.978052	0.283906	0.110275
521	O	0.489638	0.325103	0.019185
522	N	0.566144	0.274633	0.308765
523	H	0.572787	0.256675	0.301618
524	N	0.929038	0.222764	0.041632
525	H	0.921587	0.240097	0.048511
526	C	0.628353	0.320564	0.632353
527	N	0.6533	0.355893	0.29938
528	C	0.688916	0.367533	0.299077
529	N	0.699301	0.342591	0.299423
530	C	0.675333	0.306974	0.299058
531	N	0.640003	0.296596	0.299372
532	C	0.714453	0.403921	0.304506
533	C	0.686185	0.28144	0.304502
534	C	0.59196	0.309697	0.3044
535	O	0.659804	0.246853	0.308581
536	O	0.583766	0.336083	0.308568
537	O	0.749036	0.412119	0.308615
538	C	0.866802	0.176397	0.716159
539	N	0.842011	0.141024	0.382482
540	C	0.806331	0.129132	0.382761
541	N	0.795749	0.153921	0.382476
542	C	0.819539	0.189598	0.382811
543	N	0.854911	0.200186	0.382529
544	C	0.780955	0.09259	0.378057
545	C	0.808375	0.21498	0.37815
546	C	0.903344	0.187545	0.378163
547	O	0.83452	0.24966	0.37411
548	O	0.911863	0.161391	0.374087
549	O	0.746276	0.084056	0.374027
550	C	0.759599	0.226283	0.360465
551	N	0.781727	0.259673	0.677411
552	C	0.770706	0.281504	0.660168
553	C	0.733759	0.269385	0.657829
554	N	0.711645	0.236248	0.341295
555	C	0.722313	0.214082	0.358844
556	H	0.789309	0.30623	0.648805
557	C	0.69641	0.181748	0.376482
558	C	0.687508	0.181262	0.422992
559	H	0.67069	0.153731	0.434291
560	H	0.673045	0.195753	0.428095
561	H	0.711627	0.193507	0.443477
562	O	0.671299	0.163562	0.351648
563	N	0.721251	0.290692	0.642187
564	H	0.739208	0.315298	0.635074
565	N	0.773152	0.205438	0.374894
566	H	0.755825	0.180647	0.381755
567	C	0.769642	0.032506	0.360422
568	N	0.736263	0.021254	0.677334
569	C	0.714419	0.488399	0.660108
570	C	0.726527	0.463561	0.657799
571	N	0.75965	0.47457	0.341295
572	C	0.781823	0.007403	0.358844
573	H	0.689714	0.482295	0.648699
574	C	0.814142	0.01382	0.376519
575	C	0.814598	0.00543	0.423042
576	H	0.84212	0.016129	0.434368
577	H	0.800086	0.976479	0.428175
578	H	0.802358	0.017331	0.443491
579	O	0.832324	0.506863	0.351727
580	N	0.705214	0.429746	0.642154
581	H	0.680609	0.423099	0.635031
582	N	0.790495	0.066906	0.374838
583	H	0.81528	0.074364	0.381712
584	C	0.963431	0.236308	0.360515
585	N	0.974662	0.214175	0.677388
586	C	0.507503	0.225185	0.660111
587	C	0.532337	0.262131	0.657759
588	N	0.521353	0.284243	0.341332
589	C	0.988546	0.27359	0.35895
590	H	0.513594	0.20658	0.648673
591	C	0.982189	0.299471	0.376668
592	C	0.990091	0.308151	0.423344
593	H	0.979202	0.324844	0.43454
594	H	0.018988	0.32261	0.428932
595	H	0.978052	0.283906	0.443607
596	O	0.489638	0.325103	0.352518
597	N	0.566144	0.274633	0.642098
598	H	0.572787	0.256675	0.634951
599	N	0.929038	0.222764	0.374964
600	H	0.921587	0.240097	0.381844
601	C	0.628353	0.320564	0.965685
602	N	0.6533	0.355893	0.632712
603	C	0.688916	0.367533	0.63241
604	N	0.699301	0.342591	0.632755
605	C	0.675333	0.306974	0.63239
606	N	0.640003	0.296596	0.632705
607	C	0.714453	0.403921	0.637838
608	C	0.686185	0.28144	0.637835
609	C	0.59196	0.309697	0.637732
610	O	0.659804	0.246853	0.641915
611	O	0.583766	0.336083	0.641902
612	O	0.749036	0.412119	0.641948
613	C	0.866802	0.176397	0.049495
614	N	0.842011	0.141024	0.715814
615	C	0.806331	0.129132	0.716096
616	N	0.795749	0.153921	0.715807
617	C	0.819539	0.189598	0.716143
618	N	0.854911	0.200186	0.71586
619	C	0.780955	0.09259	0.711392
620	C	0.808375	0.21498	0.711482
621	C	0.903344	0.187545	0.711498
622	O	0.83452	0.24966	0.707442
623	O	0.911863	0.161391	0.707422
624	O	0.746276	0.084056	0.707362
625	C	0.759599	0.226283	0.6938
626	N	0.781727	0.259673	0.010744
627	C	0.770706	0.281504	0.993499
628	C	0.733759	0.269385	0.99116
629	N	0.711645	0.236248	0.674627
630	C	0.722313	0.214082	0.692179
631	H	0.789309	0.30623	0.98214
632	C	0.69641	0.181748	0.709814
633	C	0.687508	0.181262	0.756323
634	H	0.67069	0.153731	0.767623
635	H	0.673045	0.195753	0.761426
636	H	0.711627	0.193507	0.776812
637	O	0.671299	0.163562	0.684982
638	N	0.721251	0.290692	0.975522
639	H	0.739208	0.315298	0.968406
640	N	0.773152	0.205438	0.708229
641	H	0.755825	0.180647	0.715086
642	C	0.769642	0.032506	0.693753
643	N	0.736263	0.021254	0.010668
644	C	0.714419	0.488399	0.993443
645	C	0.726527	0.463561	0.991131
646	N	0.75965	0.47457	0.674627
647	C	0.781823	0.007403	0.692175
648	H	0.689714	0.482295	0.982031
649	C	0.814142	0.01382	0.709854
650	C	0.814598	0.00543	0.756376
651	H	0.84212	0.016129	0.767699
652	H	0.800086	0.976479	0.761506
653	H	0.802358	0.017331	0.776826
654	O	0.832324	0.506863	0.685059
655	N	0.705214	0.429746	0.975486
656	H	0.680609	0.423099	0.968366
657	N	0.790495	0.066906	0.708172
658	H	0.81528	0.074364	0.715043
659	C	0.963431	0.236308	0.693847
660	N	0.974662	0.214175	0.010723
661	C	0.507503	0.225185	0.993446
662	C	0.532337	0.262131	0.991094
663	N	0.521353	0.284243	0.674663
664	C	0.988546	0.27359	0.692282
665	H	0.513594	0.20658	0.982007
666	C	0.982189	0.299471	0.710003
667	C	0.990091	0.308151	0.756679
668	H	0.979202	0.324844	0.767872
669	H	0.018988	0.32261	0.762264
670	H	0.978052	0.283906	0.776942
671	O	0.489638	0.325103	0.68585
672	N	0.566144	0.274633	0.975432
673	H	0.572787	0.256675	0.968283
674	N	0.929038	0.222764	0.708299
675	H	0.921587	0.240097	0.715176
676	C	0.628354	0.820566	0.299019
677	N	0.653301	0.855895	0.966047
678	C	0.688916	0.867533	0.965741
679	N	0.699302	0.842593	0.96609
680	C	0.675334	0.806976	0.965724
681	N	0.640002	0.796595	0.966037
682	C	0.714453	0.90392	0.971173
683	C	0.686185	0.781442	0.971167
684	C	0.59196	0.809698	0.971067
685	O	0.659804	0.746855	0.975246
686	O	0.583766	0.836082	0.975233
687	O	0.749037	0.912121	0.97528
688	C	0.866802	0.676398	0.382828
689	N	0.842011	0.641024	0.049148
690	C	0.806331	0.629132	0.04943
691	N	0.79575	0.653922	0.049142
692	C	0.819539	0.689598	0.049478
693	N	0.854912	0.700188	0.049195
694	C	0.780955	0.592589	0.044725
695	C	0.808376	0.714982	0.044816
696	C	0.903345	0.687547	0.044831
697	O	0.83452	0.74966	0.040777
698	O	0.911862	0.66139	0.040755
699	O	0.746277	0.584057	0.040695
700	C	0.7596	0.726283	0.027133
701	N	0.781728	0.759675	0.344076
702	C	0.770707	0.781506	0.326834
703	C	0.733759	0.769384	0.324496
704	N	0.711645	0.736249	0.007961
705	C	0.722314	0.714083	0.025512
706	H	0.78931	0.806232	0.315473
707	C	0.69641	0.681748	0.043149
708	C	0.687509	0.681264	0.089658
709	H	0.67069	0.653732	0.100958
710	H	0.673044	0.695753	0.094761
711	H	0.711628	0.693509	0.110145
712	O	0.671299	0.663562	0.018316
713	N	0.72125	0.790691	0.308855
714	H	0.739209	0.815299	0.30174
715	N	0.773152	0.705438	0.041562
716	H	0.755826	0.680648	0.04842
717	C	0.769642	0.532506	0.027088
718	N	0.736264	0.521256	0.344003
719	C	0.714421	0.9884	0.326776
720	C	0.726526	0.96356	0.324465
721	N	0.759653	0.974572	0.007961
722	C	0.781823	0.507403	0.02551
723	H	0.689714	0.982297	0.315365
724	C	0.814142	0.51382	0.043187
725	C	0.814598	0.505429	0.08971
726	H	0.84212	0.516128	0.101034
727	H	0.800086	0.47648	0.09484
728	H	0.802361	0.517332	0.110159
729	O	0.832323	0.006861	0.018394
730	N	0.705214	0.929748	0.30882
731	H	0.68061	0.923101	0.301699
732	N	0.790495	0.566906	0.041505
733	H	0.81528	0.574363	0.048379
734	C	0.963431	0.736308	0.027182
735	N	0.974663	0.714177	0.344056
736	C	0.507503	0.725186	0.326779
737	C	0.532337	0.762133	0.324427
738	N	0.521353	0.784245	0.007998
739	C	0.988546	0.773589	0.025617
740	H	0.513595	0.70658	0.315341
741	C	0.982188	0.79947	0.043336
742	C	0.990091	0.80815	0.090011
743	H	0.979203	0.824846	0.101206
744	H	0.018988	0.82261	0.095599
745	H	0.978052	0.783906	0.110275
746	O	0.489637	0.825103	0.019185
747	N	0.566144	0.774632	0.308765
748	H	0.572787	0.756676	0.301618
749	N	0.929039	0.722765	0.041632
750	H	0.921587	0.740098	0.048511
751	C	0.628354	0.820566	0.632353
752	N	0.653301	0.855895	0.29938
753	C	0.688916	0.867533	0.299077
754	N	0.699302	0.842593	0.299423
755	C	0.675334	0.806976	0.299058
756	N	0.640002	0.796595	0.299372
757	C	0.714453	0.90392	0.304506
758	C	0.686185	0.781442	0.304502
759	C	0.59196	0.809698	0.3044
760	O	0.659804	0.746855	0.308581
761	O	0.583766	0.836082	0.308568
762	O	0.749037	0.912121	0.308615
763	C	0.866802	0.676398	0.716159
764	N	0.842011	0.641024	0.382482
765	C	0.806331	0.629132	0.382761
766	N	0.79575	0.653922	0.382476
767	C	0.819539	0.689598	0.382811
768	N	0.854912	0.700188	0.382529
769	C	0.780955	0.592589	0.378057
770	C	0.808376	0.714982	0.37815
771	C	0.903345	0.687547	0.378163
772	O	0.83452	0.74966	0.37411
773	O	0.911862	0.66139	0.374087
774	O	0.746277	0.584057	0.374027
775	C	0.7596	0.726283	0.360465
776	N	0.781728	0.759675	0.677411
777	C	0.770707	0.781506	0.660168
778	C	0.733759	0.769384	0.657829
779	N	0.711645	0.736249	0.341295
780	C	0.722314	0.714083	0.358844
781	H	0.78931	0.806232	0.648805
782	C	0.69641	0.681748	0.376482
783	C	0.687509	0.681264	0.422992
784	H	0.67069	0.653732	0.434291
785	H	0.673044	0.695753	0.428095
786	H	0.711628	0.693509	0.443477
787	O	0.671299	0.663562	0.351648
788	N	0.72125	0.790691	0.642187
789	H	0.739209	0.815299	0.635074
790	N	0.773152	0.705438	0.374894
791	H	0.755826	0.680648	0.381755
792	C	0.769642	0.532506	0.360422
793	N	0.736264	0.521256	0.677334
794	C	0.714421	0.9884	0.660108
795	C	0.726526	0.96356	0.657799
796	N	0.759653	0.974572	0.341295
797	C	0.781823	0.507403	0.358844
798	H	0.689714	0.982297	0.648699
799	C	0.814142	0.51382	0.376519
800	C	0.814598	0.505429	0.423042
801	H	0.84212	0.516128	0.434368
802	H	0.800086	0.47648	0.428175
803	H	0.802361	0.517332	0.443491
804	O	0.832323	0.006861	0.351727
805	N	0.705214	0.929748	0.642154
806	H	0.68061	0.923101	0.635031
807	N	0.790495	0.566906	0.374838
808	H	0.81528	0.574363	0.381712
809	C	0.963431	0.736308	0.360515
810	N	0.974663	0.714177	0.677388
811	C	0.507503	0.725186	0.660111
812	C	0.532337	0.762133	0.657759
813	N	0.521353	0.784245	0.341332
814	C	0.988546	0.773589	0.35895
815	H	0.513595	0.70658	0.648673
816	C	0.982188	0.79947	0.376668
817	C	0.990091	0.80815	0.423344
818	H	0.979203	0.824846	0.43454
819	H	0.018988	0.82261	0.428932
820	H	0.978052	0.783906	0.443607
821	O	0.489637	0.825103	0.352518
822	N	0.566144	0.774632	0.642098
823	H	0.572787	0.756676	0.634951
824	N	0.929039	0.722765	0.374964
825	H	0.921587	0.740098	0.381844
826	C	0.628354	0.820566	0.965685
827	N	0.653301	0.855895	0.632712
828	C	0.688916	0.867533	0.63241
829	N	0.699302	0.842593	0.632755
830	C	0.675334	0.806976	0.63239
831	N	0.640002	0.796595	0.632705
832	C	0.714453	0.90392	0.637838
833	C	0.686185	0.781442	0.637835
834	C	0.59196	0.809698	0.637732
835	O	0.659804	0.746855	0.641915
836	O	0.583766	0.836082	0.641902
837	O	0.749037	0.912121	0.641948
838	C	0.866802	0.676398	0.049495
839	N	0.842011	0.641024	0.715814
840	C	0.806331	0.629132	0.716096
841	N	0.79575	0.653922	0.715807
842	C	0.819539	0.689598	0.716143
843	N	0.854912	0.700188	0.71586
844	C	0.780955	0.592589	0.711392
845	C	0.808376	0.714982	0.711482
846	C	0.903345	0.687547	0.711498
847	O	0.83452	0.74966	0.707442
848	O	0.911862	0.66139	0.707422
849	O	0.746277	0.584057	0.707362
850	C	0.7596	0.726283	0.6938
851	N	0.781728	0.759675	0.010744
852	C	0.770707	0.781506	0.993499
853	C	0.733759	0.769384	0.99116
854	N	0.711645	0.736249	0.674627
855	C	0.722314	0.714083	0.692179
856	H	0.78931	0.806232	0.98214
857	C	0.69641	0.681748	0.709814
858	C	0.687509	0.681264	0.756323
859	H	0.67069	0.653732	0.767623
860	H	0.673044	0.695753	0.761426
861	H	0.711628	0.693509	0.776812
862	O	0.671299	0.663562	0.684982
863	N	0.72125	0.790691	0.975522
864	H	0.739209	0.815299	0.968406
865	N	0.773152	0.705438	0.708229
866	H	0.755826	0.680648	0.715086
867	C	0.769642	0.532506	0.693753
868	N	0.736264	0.521256	0.010668
869	C	0.714421	0.9884	0.993443
870	C	0.726526	0.96356	0.991131
871	N	0.759653	0.974572	0.674627
872	C	0.781823	0.507403	0.692175
873	H	0.689714	0.982297	0.982031
874	C	0.814142	0.51382	0.709854
875	C	0.814598	0.505429	0.756376
876	H	0.84212	0.516128	0.767699
877	H	0.800086	0.47648	0.761506
878	H	0.802361	0.517332	0.776826
879	O	0.832323	0.006861	0.685059
880	N	0.705214	0.929748	0.975486
881	H	0.68061	0.923101	0.968366
882	N	0.790495	0.566906	0.708172
883	H	0.81528	0.574363	0.715043
884	C	0.963431	0.736308	0.693847
885	N	0.974663	0.714177	0.010723
886	C	0.507503	0.725186	0.993446
887	C	0.532337	0.762133	0.991094
888	N	0.521353	0.784245	0.674663
889	C	0.988546	0.773589	0.692282
890	H	0.513595	0.70658	0.982007
891	C	0.982188	0.79947	0.710003
892	C	0.990091	0.80815	0.756679
893	H	0.979203	0.824846	0.767872
894	H	0.018988	0.82261	0.762264
895	H	0.978052	0.783906	0.776942
896	O	0.489637	0.825103	0.68585
897	N	0.566144	0.774632	0.975432
898	H	0.572787	0.756676	0.968283
899	N	0.929039	0.722765	0.708299
900	H	0.921587	0.740098	0.715176
