data_C504H252N108O72_2018-02-15_10:36:43
#******************************************
#
# CIF file created by Zeo++
# Zeo++ is an open source package to
# analyze microporous materials
#
#*******************************************

_cell_length_a		44.1607   
_cell_length_b		44.1607   
_cell_length_c		29.7482   
_cell_angle_alpha		90   
_cell_angle_beta		90   
_cell_angle_gamma		120   

_symmetry_space_group_name_H-M		'P1'
_symmetry_Int_Tables_number		1
_symmetry_cell_setting		Monoclinic

loop_
_symmetry_equiv_pos_as_xyz
'+x,+y,+z'

loop_
_atom_site_label
_atom_site_type_symbol
_atom_site_fract_x
_atom_site_fract_y
_atom_site_fract_z
1	C	0.024326	0.264455	0.008142
2	C	0.043553	0.300508	0.331151
3	C	0.080384	0.318636	0.330745
4	C	0.080012	0.265104	0.016181
5	C	0.043206	0.247043	0.01715
6	H	0.030824	0.314042	0.324553
7	H	0.093107	0.344744	0.32327
8	H	0.092434	0.251346	0.023167
9	H	0.030221	0.220823	0.024045
10	C	0.024326	0.264455	0.341476
11	C	0.043553	0.300508	0.664483
12	C	0.080384	0.318636	0.66408
13	C	0.080012	0.265104	0.349513
14	C	0.043206	0.247043	0.350485
15	H	0.030824	0.314042	0.657888
16	H	0.093107	0.344744	0.656604
17	H	0.092434	0.251346	0.356502
18	H	0.030221	0.220823	0.357379
19	C	0.024326	0.264455	0.67481
20	C	0.043553	0.300508	0.997817
21	C	0.080384	0.318636	0.997414
22	C	0.080012	0.265104	0.682847
23	C	0.043206	0.247043	0.683815
24	H	0.030824	0.314042	0.991222
25	H	0.093107	0.344744	0.989938
26	H	0.092434	0.251346	0.689836
27	H	0.030221	0.220823	0.690713
28	C	0.024326	0.764454	0.008142
29	C	0.043554	0.800509	0.331151
30	C	0.080385	0.818637	0.330745
31	C	0.080013	0.765105	0.016181
32	C	0.043206	0.747042	0.01715
33	H	0.030826	0.814043	0.324553
34	H	0.093107	0.844743	0.32327
35	H	0.092436	0.751346	0.023167
36	H	0.030223	0.720824	0.024045
37	C	0.024326	0.764454	0.341476
38	C	0.043554	0.800509	0.664483
39	C	0.080385	0.818637	0.66408
40	C	0.080013	0.765105	0.349513
41	C	0.043206	0.747042	0.350485
42	H	0.030826	0.814043	0.657888
43	H	0.093107	0.844743	0.656604
44	H	0.092436	0.751346	0.356502
45	H	0.030223	0.720824	0.357379
46	C	0.024326	0.764454	0.67481
47	C	0.043554	0.800509	0.997817
48	C	0.080385	0.818637	0.997414
49	C	0.080013	0.765105	0.682847
50	C	0.043206	0.747042	0.683815
51	H	0.030826	0.814043	0.991222
52	H	0.093107	0.844743	0.989938
53	H	0.092436	0.751346	0.689836
54	H	0.030223	0.720824	0.690713
55	C	0.136887	0.319776	0.006216
56	C	0.099489	0.301371	0.006559
57	C	0.136887	0.319776	0.33955
58	C	0.099489	0.301371	0.339892
59	C	0.136887	0.319776	0.672884
60	C	0.099489	0.301371	0.673227
61	C	0.136889	0.819777	0.006216
62	C	0.099489	0.801372	0.006559
63	C	0.136889	0.819777	0.33955
64	C	0.099489	0.801372	0.339892
65	C	0.136889	0.819777	0.672884
66	C	0.099489	0.801372	0.673227
67	C	0.191353	0.373687	0.006215
68	N	0.15576	0.355347	0.006246
69	N	0.155227	0.302524	0.006254
70	C	0.190799	0.319222	0.006224
71	C	0.191935	0.263854	0.330781
72	H	0.165827	0.250468	0.32331
73	H	0.167368	0.418141	0.02312
74	C	0.191353	0.373687	0.33955
75	N	0.15576	0.355347	0.33958
76	N	0.155227	0.302524	0.339587
77	C	0.190799	0.319222	0.339556
78	C	0.191935	0.263854	0.664117
79	H	0.165827	0.250468	0.656644
80	H	0.167368	0.418141	0.356455
81	C	0.191353	0.373687	0.672884
82	N	0.15576	0.355347	0.672914
83	N	0.155227	0.302524	0.672921
84	C	0.190799	0.319222	0.67289
85	C	0.191935	0.263854	0.997447
86	H	0.165827	0.250468	0.989978
87	H	0.167368	0.418141	0.689789
88	C	0.191353	0.873689	0.006215
89	N	0.155762	0.855349	0.006246
90	N	0.155227	0.802523	0.006254
91	C	0.1908	0.819223	0.006224
92	C	0.191936	0.763855	0.330781
93	H	0.165828	0.750468	0.32331
94	H	0.167369	0.918142	0.02312
95	C	0.191353	0.873689	0.33955
96	N	0.155762	0.855349	0.33958
97	N	0.155227	0.802523	0.339587
98	C	0.1908	0.819223	0.339556
99	C	0.191936	0.763855	0.664113
100	H	0.165828	0.750468	0.656644
101	H	0.167369	0.918142	0.356455
102	C	0.191353	0.873689	0.672884
103	N	0.155762	0.855349	0.672914
104	N	0.155227	0.802523	0.672921
105	C	0.1908	0.819223	0.67289
106	C	0.191936	0.763855	0.997447
107	H	0.165828	0.750468	0.989978
108	H	0.167369	0.918142	0.689789
109	N	0.208052	0.354814	0.006253
110	C	0.322332	0.135206	0.006291
111	N	0.35787	0.153687	0.006414
112	C	0.375373	0.189238	0.006293
113	N	0.356891	0.206294	0.006433
114	C	0.321342	0.188247	0.006308
115	N	0.304287	0.15271	0.00643
116	C	0.302418	0.206197	0.007164
117	C	0.282914	0.205923	0.302826
118	C	0.26458	0.224377	0.303616
119	C	0.264584	0.243042	0.008983
120	C	0.283241	0.242415	0.047628
121	C	0.302341	0.224452	0.046034
122	H	0.315602	0.224051	0.074069
123	C	0.246121	0.261982	0.008155
124	C	0.210069	0.245156	0.331162
125	C	0.209203	0.300228	0.006569
126	C	0.245474	0.317023	0.016179
127	C	0.263537	0.298277	0.017135
128	H	0.196526	0.218886	0.32461
129	H	0.259237	0.343207	0.023138
130	H	0.282627	0.193007	0.274112
131	H	0.289758	0.311516	0.024029
132	H	0.251482	0.22442	0.275247
133	N	0.281149	0.258351	0.087916
134	O	0.310853	0.28131	0.10132
135	O	0.266544	0.236079	0.118545
136	C	0.30438	0.098333	0.007145
137	C	0.304662	0.079102	0.302812
138	C	0.28621	0.042315	0.303604
139	C	0.267534	0.023654	0.008965
140	C	0.26815	0.042939	0.047604
141	C	0.286107	0.080001	0.046005
142	H	0.286517	0.093663	0.074047
143	C	0.248594	0.48625	0.008137
144	C	0.265421	0.467024	0.33115
145	C	0.246722	0.430192	0.330773
146	C	0.210347	0.411086	0.006555
147	C	0.193552	0.430564	0.016152
148	C	0.212297	0.467369	0.017122
149	H	0.29169	0.47975	0.3246
150	H	0.260108	0.417469	0.323309
151	H	0.317587	0.091731	0.274103
152	H	0.199059	0.480354	0.024003
153	H	0.28617	0.029173	0.275236
154	N	0.252218	0.024909	0.087893
155	O	0.229255	0.031648	0.101297
156	O	0.274493	0.532584	0.118521
157	C	0.412245	0.208159	0.007146
158	C	0.431478	0.227617	0.302782
159	C	0.468265	0.245975	0.303587
160	C	0.486922	0.245993	0.008967
161	C	0.46764	0.227359	0.047625
162	C	0.430576	0.208272	0.046035
163	H	0.416913	0.195023	0.074077
164	H	0.418848	0.227912	0.274073
165	H	0.481407	0.259056	0.27521
166	N	0.485668	0.229472	0.087921
167	O	0.478917	0.199774	0.101357
168	O	0.978008	0.244099	0.118527
169	N	0.208052	0.354814	0.339587
170	C	0.322332	0.135206	0.339624
171	N	0.35787	0.153687	0.339748
172	C	0.375373	0.189238	0.339627
173	N	0.356891	0.206294	0.339768
174	C	0.321342	0.188247	0.33964
175	N	0.304287	0.15271	0.339765
176	C	0.302418	0.206197	0.340498
177	C	0.282914	0.205923	0.636159
178	C	0.26458	0.224377	0.636949
179	C	0.264584	0.243042	0.342316
180	C	0.283241	0.242415	0.38096
181	C	0.302341	0.224452	0.379367
182	H	0.315602	0.224051	0.407402
183	C	0.246121	0.261982	0.341489
184	C	0.210069	0.245156	0.664497
185	C	0.209203	0.300228	0.339903
186	C	0.245474	0.317023	0.349513
187	C	0.263537	0.298277	0.350468
188	H	0.196526	0.218886	0.657942
189	H	0.259237	0.343207	0.356472
190	H	0.282627	0.193007	0.607444
191	H	0.289758	0.311516	0.357362
192	H	0.251482	0.22442	0.608581
193	N	0.281149	0.258351	0.421249
194	O	0.310853	0.28131	0.434654
195	O	0.266544	0.236079	0.451879
196	C	0.30438	0.098333	0.340477
197	C	0.304662	0.079102	0.636145
198	C	0.28621	0.042315	0.636939
199	C	0.267534	0.023654	0.342299
200	C	0.26815	0.042939	0.380937
201	C	0.286107	0.080001	0.37934
202	H	0.286517	0.093663	0.407379
203	C	0.248594	0.48625	0.341472
204	C	0.265421	0.467024	0.664483
205	C	0.246722	0.430192	0.664107
206	C	0.210347	0.411086	0.339889
207	C	0.193552	0.430564	0.349486
208	C	0.212297	0.467369	0.350454
209	H	0.29169	0.47975	0.657935
210	H	0.260108	0.417469	0.656644
211	H	0.317587	0.091731	0.607438
212	H	0.199059	0.480354	0.357336
213	H	0.28617	0.029173	0.608571
214	N	0.252218	0.024909	0.421228
215	O	0.229255	0.031648	0.434631
216	O	0.274493	0.532584	0.451855
217	C	0.412245	0.208159	0.340481
218	C	0.431478	0.227617	0.636115
219	C	0.468265	0.245975	0.636922
220	C	0.486922	0.245993	0.342299
221	C	0.46764	0.227359	0.380957
222	C	0.430576	0.208272	0.37937
223	H	0.416913	0.195023	0.407412
224	H	0.418848	0.227912	0.607408
225	H	0.481407	0.259056	0.608544
226	N	0.485668	0.229472	0.421255
227	O	0.478917	0.199774	0.434691
228	O	0.978008	0.244099	0.451862
229	N	0.208052	0.354814	0.672921
230	C	0.322332	0.135206	0.672958
231	N	0.35787	0.153687	0.673082
232	C	0.375373	0.189238	0.672961
233	N	0.356891	0.206294	0.673099
234	C	0.321342	0.188247	0.672974
235	N	0.304287	0.15271	0.673099
236	C	0.302418	0.206197	0.673832
237	C	0.282914	0.205923	0.969493
238	C	0.26458	0.224377	0.970283
239	C	0.264584	0.243042	0.67565
240	C	0.283241	0.242415	0.714295
241	C	0.302341	0.224452	0.712701
242	H	0.315602	0.224051	0.740736
243	C	0.246121	0.261982	0.674823
244	C	0.210069	0.245156	0.997831
245	C	0.209203	0.300228	0.673237
246	C	0.245474	0.317023	0.682847
247	C	0.263537	0.298277	0.683802
248	H	0.196526	0.218886	0.991276
249	H	0.259237	0.343207	0.689806
250	H	0.282627	0.193007	0.940779
251	H	0.289758	0.311516	0.690696
252	H	0.251482	0.22442	0.941915
253	N	0.281149	0.258351	0.754583
254	O	0.310853	0.28131	0.767988
255	O	0.266544	0.236079	0.785213
256	C	0.30438	0.098333	0.673811
257	C	0.304662	0.079102	0.969479
258	C	0.28621	0.042315	0.970273
259	C	0.267534	0.023654	0.675633
260	C	0.26815	0.042939	0.714271
261	C	0.286107	0.080001	0.712671
262	H	0.286517	0.093663	0.740713
263	C	0.248594	0.48625	0.674806
264	C	0.265421	0.467024	0.997817
265	C	0.246722	0.430192	0.997441
266	C	0.210347	0.411086	0.673223
267	C	0.193552	0.430564	0.68282
268	C	0.212297	0.467369	0.683789
269	H	0.29169	0.47975	0.991269
270	H	0.260108	0.417469	0.989975
271	H	0.317587	0.091731	0.940768
272	H	0.199059	0.480354	0.69067
273	H	0.28617	0.029173	0.941905
274	N	0.252218	0.024909	0.754559
275	O	0.229255	0.031648	0.767965
276	O	0.274493	0.532584	0.785189
277	C	0.412245	0.208159	0.673815
278	C	0.431478	0.227617	0.969449
279	C	0.468265	0.245975	0.970256
280	C	0.486922	0.245993	0.675633
281	C	0.46764	0.227359	0.714291
282	C	0.430576	0.208272	0.712705
283	H	0.416913	0.195023	0.740743
284	H	0.418848	0.227912	0.940742
285	H	0.481407	0.259056	0.941878
286	N	0.485668	0.229472	0.754589
287	O	0.478917	0.199774	0.768025
288	O	0.978008	0.244099	0.785196
289	N	0.208053	0.854815	0.006253
290	C	0.322332	0.635206	0.006291
291	N	0.357869	0.653687	0.006414
292	C	0.375373	0.689238	0.006293
293	N	0.356892	0.706294	0.006433
294	C	0.321341	0.688247	0.006308
295	N	0.304285	0.652709	0.00643
296	C	0.302419	0.706197	0.007164
297	C	0.282914	0.705922	0.302826
298	C	0.264581	0.724378	0.303616
299	C	0.264584	0.743042	0.008983
300	C	0.283241	0.742414	0.047628
301	C	0.302341	0.724451	0.046034
302	H	0.315603	0.724051	0.074069
303	C	0.246123	0.761983	0.008155
304	C	0.21007	0.745157	0.331162
305	C	0.209205	0.800229	0.006569
306	C	0.245474	0.817021	0.016179
307	C	0.263538	0.798279	0.017135
308	H	0.196527	0.718886	0.324609
309	H	0.259237	0.843206	0.023138
310	H	0.282628	0.693008	0.274112
311	H	0.289758	0.811515	0.024029
312	H	0.251482	0.724419	0.275246
313	N	0.28115	0.758351	0.087916
314	O	0.310853	0.781309	0.10132
315	O	0.266544	0.736079	0.118545
316	C	0.304381	0.598333	0.007145
317	C	0.304662	0.579101	0.302812
318	C	0.28621	0.542314	0.303604
319	C	0.267535	0.523655	0.008965
320	C	0.268151	0.542939	0.047604
321	C	0.286106	0.58	0.046005
322	H	0.286518	0.593663	0.074047
323	C	0.248594	0.986249	0.008137
324	C	0.26542	0.967023	0.33115
325	C	0.246722	0.930191	0.330773
326	C	0.210346	0.911085	0.006555
327	C	0.193552	0.930563	0.016152
328	C	0.212298	0.967371	0.017122
329	H	0.291691	0.979752	0.3246
330	H	0.26011	0.91747	0.323309
331	H	0.317588	0.59173	0.274103
332	H	0.199059	0.980353	0.024003
333	H	0.286169	0.529172	0.275236
334	N	0.252219	0.52491	0.087893
335	O	0.229256	0.531648	0.101297
336	O	0.274492	0.032583	0.118521
337	C	0.412245	0.708158	0.007146
338	C	0.431478	0.727617	0.302783
339	C	0.468265	0.745976	0.303587
340	C	0.486924	0.745994	0.008967
341	C	0.467639	0.727358	0.047625
342	C	0.430577	0.708273	0.046035
343	H	0.416914	0.695021	0.074077
344	H	0.418848	0.727913	0.274073
345	H	0.481408	0.759057	0.27521
346	N	0.485668	0.729471	0.087921
347	O	0.478917	0.699775	0.101357
348	O	0.978007	0.744098	0.118527
349	N	0.208053	0.854815	0.339587
350	C	0.322332	0.635206	0.339624
351	N	0.357869	0.653687	0.339748
352	C	0.375373	0.689238	0.339627
353	N	0.356892	0.706294	0.339765
354	C	0.321341	0.688247	0.33964
355	N	0.304285	0.652709	0.339765
356	C	0.302419	0.706197	0.340498
357	C	0.282914	0.705922	0.636159
358	C	0.264581	0.724378	0.636949
359	C	0.264584	0.743042	0.342316
360	C	0.283241	0.742414	0.38096
361	C	0.302341	0.724451	0.379367
362	H	0.315603	0.724051	0.407402
363	C	0.246123	0.761983	0.341489
364	C	0.21007	0.745157	0.664497
365	C	0.209205	0.800229	0.339903
366	C	0.245474	0.817021	0.349513
367	C	0.263538	0.798279	0.350468
368	H	0.196527	0.718886	0.657942
369	H	0.259237	0.843206	0.356472
370	H	0.282628	0.693008	0.607444
371	H	0.289758	0.811515	0.357362
372	H	0.251482	0.724419	0.608581
373	N	0.28115	0.758351	0.421249
374	O	0.310853	0.781309	0.434654
375	O	0.266544	0.736079	0.451879
376	C	0.304381	0.598333	0.340477
377	C	0.304662	0.579101	0.636145
378	C	0.28621	0.542314	0.636939
379	C	0.267535	0.523655	0.342299
380	C	0.268151	0.542939	0.380937
381	C	0.286106	0.58	0.37934
382	H	0.286518	0.593663	0.407379
383	C	0.248594	0.986249	0.341472
384	C	0.26542	0.967023	0.664483
385	C	0.246722	0.930191	0.664107
386	C	0.210346	0.911085	0.339889
387	C	0.193552	0.930563	0.349486
388	C	0.212298	0.967371	0.350454
389	H	0.291691	0.979752	0.657935
390	H	0.26011	0.91747	0.656644
391	H	0.317588	0.59173	0.607438
392	H	0.199059	0.980353	0.357336
393	H	0.286169	0.529172	0.608571
394	N	0.252219	0.52491	0.421228
395	O	0.229256	0.531648	0.434631
396	O	0.274492	0.032583	0.451855
397	C	0.412245	0.708158	0.340481
398	C	0.431478	0.727617	0.636115
399	C	0.468265	0.745976	0.636922
400	C	0.486924	0.745994	0.342299
401	C	0.467639	0.727358	0.380957
402	C	0.430577	0.708273	0.37937
403	H	0.416914	0.695021	0.407412
404	H	0.418848	0.727913	0.607408
405	H	0.481408	0.759057	0.608544
406	N	0.485668	0.729471	0.421255
407	O	0.478917	0.699775	0.434691
408	O	0.978007	0.744098	0.451862
409	N	0.208053	0.854815	0.672921
410	C	0.322332	0.635206	0.672958
411	N	0.357869	0.653687	0.673082
412	C	0.375373	0.689238	0.672961
413	N	0.356892	0.706294	0.673099
414	C	0.321341	0.688247	0.672974
415	N	0.304285	0.652709	0.673099
416	C	0.302419	0.706197	0.673832
417	C	0.282914	0.705922	0.969493
418	C	0.264581	0.724378	0.970283
419	C	0.264584	0.743042	0.67565
420	C	0.283241	0.742414	0.714295
421	C	0.302341	0.724451	0.712701
422	H	0.315603	0.724051	0.740736
423	C	0.246123	0.761983	0.674823
424	C	0.21007	0.745157	0.997831
425	C	0.209205	0.800229	0.673237
426	C	0.245474	0.817021	0.682847
427	C	0.263538	0.798279	0.683802
428	H	0.196527	0.718886	0.991276
429	H	0.259237	0.843206	0.689806
430	H	0.282628	0.693008	0.940779
431	H	0.289758	0.811515	0.690696
432	H	0.251482	0.724419	0.941915
433	N	0.28115	0.758351	0.754583
434	O	0.310853	0.781309	0.767988
435	O	0.266544	0.736079	0.785213
436	C	0.304381	0.598333	0.673811
437	C	0.304662	0.579101	0.969479
438	C	0.28621	0.542314	0.970273
439	C	0.267535	0.523655	0.675633
440	C	0.268151	0.542939	0.714271
441	C	0.286106	0.58	0.712671
442	H	0.286518	0.593663	0.740713
443	C	0.248594	0.986249	0.674806
444	C	0.26542	0.967023	0.997817
445	C	0.246722	0.930191	0.997441
446	C	0.210346	0.911085	0.673223
447	C	0.193552	0.930563	0.68282
448	C	0.212298	0.967371	0.683789
449	H	0.291691	0.979752	0.991269
450	H	0.26011	0.91747	0.989975
451	H	0.317588	0.59173	0.940768
452	H	0.199059	0.980353	0.69067
453	H	0.286169	0.529172	0.941905
454	N	0.252219	0.52491	0.754559
455	O	0.229256	0.531648	0.767965
456	O	0.274492	0.032583	0.785189
457	C	0.412245	0.708158	0.673815
458	C	0.431478	0.727617	0.969449
459	C	0.468265	0.745976	0.970256
460	C	0.486924	0.745994	0.675633
461	C	0.467639	0.727358	0.714291
462	C	0.430577	0.708273	0.712701
463	H	0.416914	0.695021	0.740743
464	H	0.418848	0.727913	0.940742
465	H	0.481408	0.759057	0.941878
466	N	0.485668	0.729471	0.754589
467	O	0.478917	0.699775	0.768025
468	O	0.978007	0.744098	0.785196
469	C	0.691354	0.373687	0.006215
470	N	0.65576	0.355347	0.006246
471	C	0.636887	0.319776	0.006216
472	N	0.655228	0.302524	0.006254
473	C	0.690798	0.319222	0.006224
474	N	0.708051	0.354814	0.006253
475	C	0.822333	0.135206	0.006291
476	N	0.857868	0.153687	0.006414
477	C	0.875372	0.189238	0.006293
478	N	0.856892	0.206294	0.006433
479	C	0.821341	0.188247	0.006308
480	N	0.804285	0.15271	0.00643
481	C	0.802417	0.206197	0.007164
482	C	0.782915	0.205923	0.302826
483	C	0.764581	0.224377	0.303616
484	C	0.764584	0.243042	0.008983
485	C	0.783242	0.242415	0.047628
486	C	0.802342	0.224452	0.046034
487	H	0.815601	0.224051	0.074069
488	C	0.746122	0.261982	0.008155
489	C	0.710069	0.245156	0.331162
490	C	0.691934	0.263854	0.330781
491	C	0.709204	0.300228	0.006569
492	C	0.745475	0.317023	0.016179
493	C	0.763536	0.298277	0.017135
494	H	0.696526	0.218886	0.32461
495	H	0.665828	0.250468	0.32331
496	H	0.759237	0.343207	0.023138
497	H	0.782627	0.193007	0.274112
498	H	0.789759	0.311516	0.024029
499	H	0.751482	0.22442	0.275247
500	N	0.781149	0.258351	0.087916
501	O	0.810853	0.28131	0.10132
502	O	0.766544	0.236079	0.118545
503	C	0.804381	0.098333	0.007145
504	C	0.804661	0.079102	0.302812
505	C	0.786209	0.042315	0.303604
506	C	0.767533	0.023654	0.008965
507	C	0.768149	0.042939	0.047604
508	C	0.786105	0.080001	0.046005
509	H	0.786519	0.093663	0.074047
510	C	0.748593	0.48625	0.008137
511	C	0.76542	0.467024	0.33115
512	C	0.746723	0.430192	0.330773
513	C	0.710348	0.411086	0.006555
514	C	0.693551	0.430564	0.016152
515	C	0.712298	0.467369	0.017122
516	H	0.79169	0.47975	0.3246
517	H	0.760108	0.417469	0.323309
518	H	0.667368	0.418141	0.02312
519	H	0.817588	0.091731	0.274103
520	H	0.699058	0.480354	0.024003
521	H	0.786168	0.029173	0.275236
522	N	0.752219	0.024909	0.087893
523	O	0.729255	0.031648	0.101297
524	O	0.774493	0.532584	0.118521
525	C	0.912244	0.208159	0.007146
526	C	0.931477	0.227617	0.302782
527	C	0.968264	0.245975	0.303587
528	C	0.986923	0.245993	0.008967
529	C	0.967638	0.227359	0.047625
530	C	0.930575	0.208272	0.046035
531	H	0.916914	0.195023	0.074077
532	C	0.524325	0.264455	0.008142
533	C	0.543552	0.300508	0.331151
534	C	0.580385	0.318636	0.330745
535	C	0.59949	0.301371	0.006559
536	C	0.580013	0.265104	0.016181
537	C	0.543205	0.247043	0.01715
538	H	0.530824	0.314042	0.324553
539	H	0.593106	0.344744	0.32327
540	H	0.592434	0.251346	0.023167
541	H	0.918846	0.227912	0.274073
542	H	0.530222	0.220823	0.024045
543	H	0.981408	0.259056	0.27521
544	N	0.985667	0.229472	0.087921
545	O	0.978916	0.199774	0.101357
546	O	0.478006	0.244099	0.118527
547	C	0.691354	0.373687	0.33955
548	N	0.65576	0.355347	0.33958
549	C	0.636887	0.319776	0.33955
550	N	0.655228	0.302524	0.339587
551	C	0.690798	0.319222	0.339556
552	N	0.708051	0.354814	0.339587
553	C	0.822333	0.135206	0.339624
554	N	0.857868	0.153687	0.339748
555	C	0.875372	0.189238	0.339627
556	N	0.856892	0.206294	0.339768
557	C	0.821341	0.188247	0.33964
558	N	0.804285	0.15271	0.339765
559	C	0.802417	0.206197	0.340498
560	C	0.782915	0.205923	0.636159
561	C	0.764581	0.224377	0.636949
562	C	0.764584	0.243042	0.342316
563	C	0.783242	0.242415	0.38096
564	C	0.802342	0.224452	0.379367
565	H	0.815601	0.224051	0.407402
566	C	0.746122	0.261982	0.341489
567	C	0.710069	0.245156	0.664497
568	C	0.691934	0.263854	0.664117
569	C	0.709204	0.300228	0.339903
570	C	0.745475	0.317023	0.349513
571	C	0.763536	0.298277	0.350468
572	H	0.696526	0.218886	0.657942
573	H	0.665828	0.250468	0.656644
574	H	0.759237	0.343207	0.356472
575	H	0.782627	0.193007	0.607444
576	H	0.789759	0.311516	0.357362
577	H	0.751482	0.22442	0.608581
578	N	0.781149	0.258351	0.421249
579	O	0.810853	0.28131	0.434654
580	O	0.766544	0.236079	0.451879
581	C	0.804381	0.098333	0.340477
582	C	0.804661	0.079102	0.636145
583	C	0.786209	0.042315	0.636939
584	C	0.767533	0.023654	0.342299
585	C	0.768149	0.042939	0.380937
586	C	0.786105	0.080001	0.37934
587	H	0.786519	0.093663	0.407379
588	C	0.748593	0.48625	0.341472
589	C	0.76542	0.467024	0.664483
590	C	0.746723	0.430192	0.664107
591	C	0.710348	0.411086	0.339889
592	C	0.693551	0.430564	0.349486
593	C	0.712298	0.467369	0.350454
594	H	0.79169	0.47975	0.657935
595	H	0.760108	0.417469	0.656644
596	H	0.667368	0.418141	0.356455
597	H	0.817588	0.091731	0.607438
598	H	0.699058	0.480354	0.357336
599	H	0.786168	0.029173	0.608571
600	N	0.752219	0.024909	0.421228
601	O	0.729255	0.031648	0.434631
602	O	0.774493	0.532584	0.451855
603	C	0.912244	0.208159	0.340481
604	C	0.931477	0.227617	0.636115
605	C	0.968264	0.245975	0.636922
606	C	0.986923	0.245993	0.342299
607	C	0.967638	0.227359	0.380957
608	C	0.930575	0.208272	0.37937
609	H	0.916914	0.195023	0.407412
610	C	0.524325	0.264455	0.341476
611	C	0.543552	0.300508	0.664483
612	C	0.580385	0.318636	0.66408
613	C	0.59949	0.301371	0.339892
614	C	0.580013	0.265104	0.349513
615	C	0.543205	0.247043	0.350485
616	H	0.530824	0.314042	0.657888
617	H	0.593106	0.344744	0.656604
618	H	0.592434	0.251346	0.356502
619	H	0.918846	0.227912	0.607408
620	H	0.530222	0.220823	0.357379
621	H	0.981408	0.259056	0.608544
622	N	0.985667	0.229472	0.421255
623	O	0.978916	0.199774	0.434691
624	O	0.478006	0.244099	0.451862
625	C	0.691354	0.373687	0.672884
626	N	0.65576	0.355347	0.672914
627	C	0.636887	0.319776	0.672884
628	N	0.655228	0.302524	0.672921
629	C	0.690798	0.319222	0.67289
630	N	0.708051	0.354814	0.672921
631	C	0.822333	0.135206	0.672958
632	N	0.857868	0.153687	0.673082
633	C	0.875372	0.189238	0.672961
634	N	0.856892	0.206294	0.673099
635	C	0.821341	0.188247	0.672974
636	N	0.804285	0.15271	0.673099
637	C	0.802417	0.206197	0.673832
638	C	0.782915	0.205923	0.969493
639	C	0.764581	0.224377	0.970283
640	C	0.764584	0.243042	0.67565
641	C	0.783242	0.242415	0.714295
642	C	0.802342	0.224452	0.712701
643	H	0.815601	0.224051	0.740736
644	C	0.746122	0.261982	0.674823
645	C	0.710069	0.245156	0.997831
646	C	0.691934	0.263854	0.997447
647	C	0.709204	0.300228	0.673237
648	C	0.745475	0.317023	0.682847
649	C	0.763536	0.298277	0.683802
650	H	0.696526	0.218886	0.991276
651	H	0.665828	0.250468	0.989978
652	H	0.759237	0.343207	0.689806
653	H	0.782627	0.193007	0.940779
654	H	0.789759	0.311516	0.690696
655	H	0.751482	0.22442	0.941915
656	N	0.781149	0.258351	0.754583
657	O	0.810853	0.28131	0.767988
658	O	0.766544	0.236079	0.785213
659	C	0.804381	0.098333	0.673811
660	C	0.804661	0.079102	0.969479
661	C	0.786209	0.042315	0.970273
662	C	0.767533	0.023654	0.675633
663	C	0.768149	0.042939	0.714271
664	C	0.786105	0.080001	0.712671
665	H	0.786519	0.093663	0.740713
666	C	0.748593	0.48625	0.674806
667	C	0.76542	0.467024	0.997817
668	C	0.746723	0.430192	0.997441
669	C	0.710348	0.411086	0.673223
670	C	0.693551	0.430564	0.68282
671	C	0.712298	0.467369	0.683789
672	H	0.79169	0.47975	0.991269
673	H	0.760108	0.417469	0.989975
674	H	0.667368	0.418141	0.689789
675	H	0.817588	0.091731	0.940768
676	H	0.699058	0.480354	0.69067
677	H	0.786168	0.029173	0.941905
678	N	0.752219	0.024909	0.754559
679	O	0.729255	0.031648	0.767965
680	O	0.774493	0.532584	0.785189
681	C	0.912244	0.208159	0.673815
682	C	0.931477	0.227617	0.969449
683	C	0.968264	0.245975	0.970256
684	C	0.986923	0.245993	0.675633
685	C	0.967638	0.227359	0.714291
686	C	0.930575	0.208272	0.712705
687	H	0.916914	0.195023	0.740743
688	C	0.524325	0.264455	0.67481
689	C	0.543552	0.300508	0.997817
690	C	0.580385	0.318636	0.997414
691	C	0.59949	0.301371	0.673227
692	C	0.580013	0.265104	0.682847
693	C	0.543205	0.247043	0.683815
694	H	0.530824	0.314042	0.991222
695	H	0.593106	0.344744	0.989938
696	H	0.592434	0.251346	0.689836
697	H	0.918846	0.227912	0.940742
698	H	0.530222	0.220823	0.690713
699	H	0.981408	0.259056	0.941878
700	N	0.985667	0.229472	0.754589
701	O	0.978916	0.199774	0.768025
702	O	0.478006	0.244099	0.785196
703	C	0.691354	0.873689	0.006215
704	N	0.65576	0.855349	0.006246
705	C	0.636888	0.819777	0.006216
706	N	0.655228	0.802523	0.006254
707	C	0.690799	0.819223	0.006224
708	N	0.708054	0.854815	0.006253
709	C	0.822333	0.635206	0.006291
710	N	0.857869	0.653687	0.006414
711	C	0.875372	0.689238	0.006293
712	N	0.856892	0.706294	0.006433
713	C	0.82134	0.688247	0.006308
714	N	0.804285	0.652709	0.00643
715	C	0.80242	0.706197	0.007164
716	C	0.782914	0.705922	0.302826
717	C	0.764581	0.724378	0.303616
718	C	0.764584	0.743042	0.008983
719	C	0.783242	0.742414	0.047628
720	C	0.802341	0.724451	0.046034
721	H	0.815604	0.724051	0.074069
722	C	0.746123	0.761983	0.008155
723	C	0.71007	0.745157	0.331162
724	C	0.691935	0.763855	0.330781
725	C	0.709205	0.800229	0.006569
726	C	0.745474	0.817021	0.016179
727	C	0.763539	0.798279	0.017135
728	H	0.696527	0.718886	0.324609
729	H	0.665828	0.750468	0.32331
730	H	0.759237	0.843206	0.023138
731	H	0.782628	0.693008	0.274112
732	H	0.789758	0.811515	0.024029
733	H	0.751482	0.724419	0.275246
734	N	0.781149	0.758351	0.087916
735	O	0.810852	0.781309	0.10132
736	O	0.766544	0.736079	0.118545
737	C	0.804381	0.598333	0.007145
738	C	0.804663	0.579101	0.302812
739	C	0.78621	0.542314	0.303604
740	C	0.767536	0.523655	0.008965
741	C	0.768151	0.542939	0.047604
742	C	0.786107	0.58	0.046005
743	H	0.786518	0.593663	0.074047
744	C	0.748593	0.986249	0.008137
745	C	0.765422	0.967023	0.33115
746	C	0.746723	0.930191	0.330773
747	C	0.710347	0.911085	0.006555
748	C	0.693553	0.930563	0.016152
749	C	0.712299	0.967371	0.017122
750	H	0.791691	0.979752	0.3246
751	H	0.760111	0.91747	0.323309
752	H	0.667369	0.918142	0.02312
753	H	0.817588	0.59173	0.274103
754	H	0.699059	0.980353	0.024003
755	H	0.786168	0.529172	0.275236
756	N	0.752219	0.52491	0.087893
757	O	0.729257	0.531648	0.101297
758	O	0.774493	0.032583	0.118521
759	C	0.912246	0.708158	0.007146
760	C	0.931477	0.727617	0.302783
761	C	0.968264	0.745976	0.303587
762	C	0.986924	0.745994	0.008967
763	C	0.96764	0.727358	0.047625
764	C	0.930578	0.708273	0.046035
765	H	0.916914	0.695021	0.074077
766	C	0.524326	0.764454	0.008142
767	C	0.543554	0.800509	0.331151
768	C	0.580385	0.818637	0.330745
769	C	0.59949	0.801372	0.006559
770	C	0.580014	0.765105	0.016181
771	C	0.543206	0.747042	0.01715
772	H	0.530825	0.814043	0.324553
773	H	0.593106	0.844743	0.32327
774	H	0.592435	0.751346	0.023167
775	H	0.918849	0.727913	0.274073
776	H	0.530222	0.720824	0.024045
777	H	0.981409	0.759057	0.27521
778	N	0.985669	0.729471	0.087921
779	O	0.978918	0.699775	0.101357
780	O	0.478007	0.744098	0.118527
781	C	0.691354	0.873689	0.33955
782	N	0.65576	0.855349	0.33958
783	C	0.636888	0.819777	0.33955
784	N	0.655228	0.802523	0.339587
785	C	0.690799	0.819223	0.339556
786	N	0.708054	0.854815	0.339587
787	C	0.822333	0.635206	0.339624
788	N	0.857869	0.653687	0.339748
789	C	0.875372	0.689238	0.339627
790	N	0.856892	0.706294	0.339765
791	C	0.82134	0.688247	0.33964
792	N	0.804285	0.652709	0.339765
793	C	0.80242	0.706197	0.340498
794	C	0.782914	0.705922	0.636159
795	C	0.764581	0.724378	0.636949
796	C	0.764584	0.743042	0.342316
797	C	0.783242	0.742414	0.38096
798	C	0.802341	0.724451	0.379367
799	H	0.815604	0.724051	0.407402
800	C	0.746123	0.761983	0.341489
801	C	0.71007	0.745157	0.664497
802	C	0.691935	0.763855	0.664113
803	C	0.709205	0.800229	0.339903
804	C	0.745474	0.817021	0.349513
805	C	0.763539	0.798279	0.350468
806	H	0.696527	0.718886	0.657942
807	H	0.665828	0.750468	0.656644
808	H	0.759237	0.843206	0.356472
809	H	0.782628	0.693008	0.607444
810	H	0.789758	0.811515	0.357362
811	H	0.751482	0.724419	0.608581
812	N	0.781149	0.758351	0.421249
813	O	0.810852	0.781309	0.434654
814	O	0.766544	0.736079	0.451879
815	C	0.804381	0.598333	0.340477
816	C	0.804663	0.579101	0.636145
817	C	0.78621	0.542314	0.636939
818	C	0.767536	0.523655	0.342299
819	C	0.768151	0.542939	0.380937
820	C	0.786107	0.58	0.37934
821	H	0.786518	0.593663	0.407379
822	C	0.748593	0.986249	0.341472
823	C	0.765422	0.967023	0.664483
824	C	0.746723	0.930191	0.664107
825	C	0.710347	0.911085	0.339889
826	C	0.693553	0.930563	0.349486
827	C	0.712299	0.967371	0.350454
828	H	0.791691	0.979752	0.657935
829	H	0.760111	0.91747	0.656644
830	H	0.667369	0.918142	0.356455
831	H	0.817588	0.59173	0.607438
832	H	0.699059	0.980353	0.357336
833	H	0.786168	0.529172	0.608571
834	N	0.752219	0.52491	0.421228
835	O	0.729257	0.531648	0.434631
836	O	0.774493	0.032583	0.451855
837	C	0.912246	0.708158	0.340481
838	C	0.931477	0.727617	0.636115
839	C	0.968264	0.745976	0.636922
840	C	0.986924	0.745994	0.342299
841	C	0.96764	0.727358	0.380957
842	C	0.930578	0.708273	0.37937
843	H	0.916914	0.695021	0.407412
844	C	0.524326	0.764454	0.341476
845	C	0.543554	0.800509	0.664483
846	C	0.580385	0.818637	0.66408
847	C	0.59949	0.801372	0.339892
848	C	0.580014	0.765105	0.349513
849	C	0.543206	0.747042	0.350485
850	H	0.530825	0.814043	0.657888
851	H	0.593106	0.844743	0.656604
852	H	0.592435	0.751346	0.356502
853	H	0.918849	0.727913	0.607408
854	H	0.530222	0.720824	0.357379
855	H	0.981409	0.759057	0.608544
856	N	0.985669	0.729471	0.421255
857	O	0.978918	0.699775	0.434691
858	O	0.478007	0.744098	0.451862
859	C	0.691354	0.873689	0.672884
860	N	0.65576	0.855349	0.672914
861	C	0.636888	0.819777	0.672884
862	N	0.655228	0.802523	0.672921
863	C	0.690799	0.819223	0.67289
864	N	0.708054	0.854815	0.672921
865	C	0.822333	0.635206	0.672958
866	N	0.857869	0.653687	0.673082
867	C	0.875372	0.689238	0.672961
868	N	0.856892	0.706294	0.673099
869	C	0.82134	0.688247	0.672974
870	N	0.804285	0.652709	0.673099
871	C	0.80242	0.706197	0.673832
872	C	0.782914	0.705922	0.969493
873	C	0.764581	0.724378	0.970283
874	C	0.764584	0.743042	0.67565
875	C	0.783242	0.742414	0.714295
876	C	0.802341	0.724451	0.712701
877	H	0.815604	0.724051	0.740736
878	C	0.746123	0.761983	0.674823
879	C	0.71007	0.745157	0.997831
880	C	0.691935	0.763855	0.997447
881	C	0.709205	0.800229	0.673237
882	C	0.745474	0.817021	0.682847
883	C	0.763539	0.798279	0.683802
884	H	0.696527	0.718886	0.991276
885	H	0.665828	0.750468	0.989978
886	H	0.759237	0.843206	0.689806
887	H	0.782628	0.693008	0.940779
888	H	0.789758	0.811515	0.690696
889	H	0.751482	0.724419	0.941915
890	N	0.781149	0.758351	0.754583
891	O	0.810852	0.781309	0.767988
892	O	0.766544	0.736079	0.785213
893	C	0.804381	0.598333	0.673811
894	C	0.804663	0.579101	0.969479
895	C	0.78621	0.542314	0.970273
896	C	0.767536	0.523655	0.675633
897	C	0.768151	0.542939	0.714271
898	C	0.786107	0.58	0.712671
899	H	0.786518	0.593663	0.740713
900	C	0.748593	0.986249	0.674806
901	C	0.765422	0.967023	0.997817
902	C	0.746723	0.930191	0.997441
903	C	0.710347	0.911085	0.673223
904	C	0.693553	0.930563	0.68282
905	C	0.712299	0.967371	0.683789
906	H	0.791691	0.979752	0.991269
907	H	0.760111	0.91747	0.989975
908	H	0.667369	0.918142	0.689789
909	H	0.817588	0.59173	0.940768
910	H	0.699059	0.980353	0.69067
911	H	0.786168	0.529172	0.941905
912	N	0.752219	0.52491	0.754559
913	O	0.729257	0.531648	0.767965
914	O	0.774493	0.032583	0.785189
915	C	0.912246	0.708158	0.673815
916	C	0.931477	0.727617	0.969449
917	C	0.968264	0.745976	0.970256
918	C	0.986924	0.745994	0.675633
919	C	0.96764	0.727358	0.714291
920	C	0.930578	0.708273	0.712701
921	H	0.916914	0.695021	0.740743
922	C	0.524326	0.764454	0.67481
923	C	0.543554	0.800509	0.997817
924	C	0.580385	0.818637	0.997414
925	C	0.59949	0.801372	0.673227
926	C	0.580014	0.765105	0.682847
927	C	0.543206	0.747042	0.683815
928	H	0.530825	0.814043	0.991222
929	H	0.593106	0.844743	0.989938
930	H	0.592435	0.751346	0.689836
931	H	0.918849	0.727913	0.940742
932	H	0.530222	0.720824	0.690713
933	H	0.981409	0.759057	0.941878
934	N	0.985669	0.729471	0.754589
935	O	0.978918	0.699775	0.768025
936	O	0.478007	0.744098	0.785196
