data_C792H504N144O72_2018-02-15_10:43:32
#******************************************
#
# CIF file created by Zeo++
# Zeo++ is an open source package to
# analyze microporous materials
#
#*******************************************

_cell_length_a		46.5407   
_cell_length_b		46.5407   
_cell_length_c		29.6228   
_cell_angle_alpha		90   
_cell_angle_beta		90   
_cell_angle_gamma		120   

_symmetry_space_group_name_H-M		'P1'
_symmetry_Int_Tables_number		1
_symmetry_cell_setting		Monoclinic

loop_
_symmetry_equiv_pos_as_xyz
'+x,+y,+z'

loop_
_atom_site_label
_atom_site_type_symbol
_atom_site_fract_x
_atom_site_fract_y
_atom_site_fract_z
1	C	0.027541	0.265259	0.006362
2	C	0.046976	0.30083	0.339724
3	C	0.082088	0.318649	0.339191
4	C	0.09903	0.300721	0.0057
5	C	0.081808	0.265862	0.005856
6	C	0.046706	0.248837	0.006156
7	H	0.036043	0.315039	0.340133
8	H	0.124531	0.31338	0.00563
9	H	0.035563	0.223673	0.006187
10	N	0.117071	0.251455	0.300419
11	C	0.100918	0.250061	0.005943
12	N	0.117329	0.252284	0.044905
13	H	0.141956	0.276794	0.129663
14	H	0.12394	0.232801	0.133376
15	C	0.117921	0.369561	0.047228
16	C	0.101507	0.353702	0.006559
17	C	0.117632	0.369982	0.299491
18	O	0.105726	0.35288	0.087424
19	H	0.109564	0.358373	0.268959
20	C	0.121877	0.368821	0.128883
21	H	0.108324	0.352287	0.156824
22	H	0.121772	0.392046	0.133484
23	C	0.027541	0.265259	0.339694
24	C	0.046976	0.30083	0.673055
25	C	0.082088	0.318649	0.672525
26	C	0.09903	0.300721	0.339032
27	C	0.081808	0.265862	0.339188
28	C	0.046706	0.248837	0.339488
29	H	0.036043	0.315039	0.673467
30	H	0.124531	0.31338	0.338961
31	H	0.035563	0.223673	0.339518
32	N	0.117071	0.251455	0.633754
33	C	0.100918	0.250061	0.339275
34	N	0.117329	0.252284	0.378239
35	H	0.141956	0.276794	0.462998
36	H	0.12394	0.232801	0.466711
37	C	0.117921	0.369561	0.380561
38	C	0.101507	0.353702	0.339893
39	C	0.117632	0.369982	0.632826
40	O	0.105726	0.35288	0.420756
41	H	0.109564	0.358373	0.602292
42	C	0.121877	0.368821	0.462218
43	H	0.108324	0.352287	0.490156
44	H	0.121772	0.392046	0.466819
45	C	0.027541	0.265259	0.673028
46	C	0.046976	0.30083	0.006389
47	C	0.082088	0.318649	0.005856
48	C	0.09903	0.300721	0.672366
49	C	0.081808	0.265862	0.672522
50	C	0.046706	0.248837	0.672822
51	H	0.036043	0.315039	0.0068
52	H	0.124531	0.31338	0.672295
53	H	0.035563	0.223673	0.672853
54	N	0.117071	0.251455	0.967085
55	C	0.100918	0.250061	0.672609
56	N	0.117329	0.252284	0.711573
57	H	0.141956	0.276794	0.796332
58	H	0.12394	0.232801	0.800045
59	C	0.117921	0.369561	0.713895
60	C	0.101507	0.353702	0.673227
61	C	0.117632	0.369982	0.966157
62	O	0.105726	0.35288	0.754091
63	H	0.109564	0.358373	0.935626
64	C	0.121877	0.368821	0.795552
65	H	0.108324	0.352287	0.82349
66	H	0.121772	0.392046	0.80015
67	C	0.027543	0.765262	0.006362
68	C	0.046975	0.80083	0.339724
69	C	0.082087	0.818649	0.339191
70	C	0.09903	0.800721	0.0057
71	C	0.081807	0.765862	0.005856
72	C	0.046704	0.748837	0.006156
73	H	0.036042	0.815039	0.340133
74	H	0.124529	0.813379	0.00563
75	H	0.035563	0.723674	0.006187
76	N	0.117071	0.751454	0.300419
77	C	0.100916	0.75006	0.005943
78	N	0.117329	0.752283	0.044905
79	H	0.141956	0.776793	0.129663
80	H	0.12394	0.732799	0.133376
81	C	0.117921	0.86956	0.047228
82	C	0.101506	0.853701	0.006559
83	C	0.117631	0.869982	0.299491
84	O	0.105724	0.85288	0.087424
85	H	0.109564	0.858373	0.268959
86	C	0.121877	0.868821	0.128883
87	H	0.108324	0.852287	0.156824
88	H	0.121772	0.892046	0.133484
89	C	0.027543	0.765262	0.339694
90	C	0.046975	0.80083	0.673055
91	C	0.082087	0.818649	0.672525
92	C	0.09903	0.800721	0.339032
93	C	0.081807	0.765862	0.339188
94	C	0.046704	0.748837	0.339488
95	H	0.036042	0.815039	0.673467
96	H	0.124529	0.813379	0.338961
97	H	0.035563	0.723674	0.339518
98	N	0.117071	0.751454	0.633754
99	C	0.100916	0.75006	0.339275
100	N	0.117329	0.752283	0.378239
101	H	0.141956	0.776793	0.462998
102	H	0.12394	0.732799	0.466711
103	C	0.117921	0.86956	0.380561
104	C	0.101506	0.853701	0.339893
105	C	0.117631	0.869982	0.632826
106	O	0.105724	0.85288	0.420756
107	H	0.109564	0.858373	0.602292
108	C	0.121877	0.868821	0.462218
109	H	0.108324	0.852287	0.490156
110	H	0.121772	0.892046	0.466819
111	C	0.027543	0.765262	0.673028
112	C	0.046975	0.80083	0.006389
113	C	0.082087	0.818649	0.005856
114	C	0.09903	0.800721	0.672366
115	C	0.081807	0.765862	0.672522
116	C	0.046704	0.748837	0.672822
117	H	0.036042	0.815039	0.0068
118	H	0.124529	0.813379	0.672295
119	H	0.035563	0.723674	0.672853
120	N	0.117071	0.751454	0.967085
121	C	0.100916	0.75006	0.672609
122	N	0.117329	0.752283	0.711573
123	H	0.141956	0.776793	0.796332
124	H	0.12394	0.732799	0.800045
125	C	0.117921	0.86956	0.713895
126	C	0.101506	0.853701	0.673227
127	C	0.117631	0.869982	0.966157
128	O	0.105724	0.85288	0.754091
129	H	0.109564	0.858373	0.935626
130	C	0.121877	0.868821	0.795552
131	H	0.108324	0.852287	0.82349
132	H	0.121772	0.892046	0.80015
133	H	0.226884	0.197654	0.006163
134	C	0.215008	0.249254	0.33964
135	C	0.19718	0.266542	0.33911
136	C	0.215115	0.301411	0.005606
137	H	0.200797	0.224111	0.340069
138	H	0.20246	0.314258	0.005549
139	H	0.227371	0.032909	0.339974
140	C	0.214528	0.416924	0.005775
141	C	0.196882	0.434135	0.005822
142	C	0.214934	0.469234	0.006109
143	H	0.201701	0.391424	0.005819
144	H	0.2009	0.480364	0.006187
145	C	0.14632	0.251676	0.047183
146	C	0.162128	0.250931	0.006542
147	C	0.145792	0.250582	0.299416
148	O	0.163076	0.25636	0.087357
149	H	0.157377	0.253978	0.268893
150	C	0.147021	0.256283	0.128843
151	H	0.163611	0.259394	0.156769
152	H	0.239001	0.368543	0.129518
153	N	0.147233	0.398681	0.300649
154	C	0.162008	0.415004	0.006129
155	N	0.147536	0.398527	0.04496
156	H	0.147357	0.3736	0.129598
157	H	0.235988	0.118543	0.133344
158	H	0.226884	0.197654	0.339495
159	C	0.215008	0.249254	0.672974
160	C	0.19718	0.266542	0.672444
161	C	0.215115	0.301411	0.338938
162	H	0.200797	0.224111	0.673403
163	H	0.20246	0.314258	0.33888
164	H	0.227371	0.032909	0.673305
165	C	0.214528	0.416924	0.339107
166	C	0.196882	0.434135	0.339154
167	C	0.214934	0.469234	0.339441
168	H	0.201701	0.391424	0.339151
169	H	0.2009	0.480364	0.339522
170	C	0.14632	0.251676	0.380517
171	C	0.162128	0.250931	0.339876
172	C	0.145792	0.250582	0.632748
173	O	0.163076	0.25636	0.420692
174	H	0.157377	0.253978	0.602228
175	C	0.147021	0.256283	0.462177
176	H	0.163611	0.259394	0.490102
177	H	0.239001	0.368543	0.462852
178	N	0.147233	0.398681	0.633984
179	C	0.162008	0.415004	0.339461
180	N	0.147536	0.398527	0.378293
181	H	0.147357	0.3736	0.462933
182	H	0.235988	0.118543	0.466677
183	H	0.226884	0.197654	0.672829
184	C	0.215008	0.249254	0.006308
185	C	0.19718	0.266542	0.005775
186	C	0.215115	0.301411	0.672272
187	H	0.200797	0.224111	0.006734
188	H	0.20246	0.314258	0.672214
189	H	0.227371	0.032909	0.006639
190	C	0.214528	0.416924	0.672441
191	C	0.196882	0.434135	0.672488
192	C	0.214934	0.469234	0.672775
193	H	0.201701	0.391424	0.672485
194	H	0.2009	0.480364	0.672853
195	C	0.14632	0.251676	0.713851
196	C	0.162128	0.250931	0.67321
197	C	0.145792	0.250582	0.966082
198	O	0.163076	0.25636	0.754023
199	H	0.157377	0.253978	0.935559
200	C	0.147021	0.256283	0.795511
201	H	0.163611	0.259394	0.823436
202	H	0.239001	0.368543	0.796186
203	N	0.147233	0.398681	0.967318
204	C	0.162008	0.415004	0.672795
205	N	0.147536	0.398527	0.711627
206	H	0.147357	0.3736	0.796267
207	H	0.235988	0.118543	0.800011
208	H	0.226884	0.697655	0.006163
209	C	0.215007	0.749254	0.33964
210	C	0.19718	0.766542	0.33911
211	C	0.215115	0.80141	0.005606
212	H	0.200796	0.724111	0.340069
213	H	0.202459	0.814257	0.005549
214	H	0.22737	0.532908	0.339974
215	C	0.214528	0.916923	0.005775
216	C	0.196882	0.934137	0.005822
217	C	0.214935	0.969236	0.006109
218	H	0.201701	0.891423	0.005819
219	H	0.200899	0.980364	0.006187
220	C	0.146319	0.751675	0.047183
221	C	0.162127	0.750931	0.006542
222	C	0.145792	0.750581	0.299416
223	O	0.163075	0.756359	0.087357
224	H	0.157376	0.753978	0.268893
225	C	0.14702	0.756283	0.128843
226	H	0.16361	0.759394	0.156769
227	H	0.239001	0.868543	0.129518
228	N	0.147232	0.89868	0.300649
229	C	0.162007	0.915003	0.006129
230	N	0.147535	0.898526	0.04496
231	H	0.147357	0.873599	0.129598
232	H	0.235987	0.618542	0.133344
233	H	0.226884	0.697655	0.339495
234	C	0.215007	0.749254	0.672974
235	C	0.19718	0.766542	0.672444
236	C	0.215115	0.80141	0.338938
237	H	0.200796	0.724111	0.673403
238	H	0.202459	0.814257	0.33888
239	H	0.22737	0.532908	0.673305
240	C	0.214528	0.916923	0.339107
241	C	0.196882	0.934137	0.339154
242	C	0.214935	0.969236	0.339441
243	H	0.201701	0.891423	0.339151
244	H	0.200899	0.980364	0.339522
245	C	0.146319	0.751675	0.380517
246	C	0.162127	0.750931	0.339876
247	C	0.145792	0.750581	0.632748
248	O	0.163075	0.756359	0.420692
249	H	0.157376	0.753978	0.602228
250	C	0.14702	0.756283	0.462177
251	H	0.16361	0.759394	0.490102
252	H	0.239001	0.868543	0.462852
253	N	0.147232	0.89868	0.633984
254	C	0.162007	0.915003	0.339461
255	N	0.147535	0.898526	0.378293
256	H	0.147357	0.873599	0.462933
257	H	0.235987	0.618542	0.466677
258	H	0.226884	0.697655	0.672829
259	C	0.215007	0.749254	0.006308
260	C	0.19718	0.766542	0.005775
261	C	0.215115	0.80141	0.672272
262	H	0.200796	0.724111	0.006734
263	H	0.202459	0.814257	0.672214
264	H	0.22737	0.532908	0.006639
265	C	0.214528	0.916923	0.672441
266	C	0.196882	0.934137	0.672488
267	C	0.214935	0.969236	0.672775
268	H	0.201701	0.891423	0.672485
269	H	0.200899	0.980364	0.672853
270	C	0.146319	0.751675	0.713851
271	C	0.162127	0.750931	0.67321
272	C	0.145792	0.750581	0.966082
273	O	0.163075	0.756359	0.754023
274	H	0.157376	0.753978	0.935559
275	C	0.14702	0.756283	0.795511
276	H	0.16361	0.759394	0.823436
277	H	0.239001	0.868543	0.796186
278	N	0.147232	0.89868	0.967318
279	C	0.162007	0.915003	0.672795
280	N	0.147535	0.898526	0.711627
281	H	0.147357	0.873599	0.796264
282	H	0.235987	0.618542	0.800011
283	C	0.26847	0.247259	0.006365
284	C	0.252049	0.211678	0.006122
285	C	0.26908	0.193612	0.005765
286	C	0.303939	0.21124	0.005603
287	C	0.304044	0.263396	0.339789
288	C	0.250581	0.265391	0.006355
289	C	0.249972	0.319036	0.005765
290	C	0.267005	0.300974	0.006241
291	H	0.292169	0.315	0.006398
292	C	0.268662	0.024427	0.006264
293	C	0.304245	0.043596	0.006156
294	C	0.304671	0.095912	0.005636
295	C	0.2698	0.078959	0.33911
296	C	0.252514	0.043848	0.339576
297	C	0.250519	0.488408	0.006271
298	C	0.266673	0.468994	0.33965
299	C	0.249397	0.433884	0.339167
300	H	0.291815	0.479933	0.340069
301	C	0.264643	0.398063	0.04729
302	C	0.265049	0.414497	0.006724
303	C	0.265076	0.398336	0.299576
304	N	0.26405	0.368677	0.300664
305	C	0.265747	0.353913	0.006058
306	N	0.263923	0.368417	0.044948
307	O	0.260163	0.41025	0.087488
308	H	0.261268	0.406275	0.269112
309	C	0.259776	0.393984	0.128917
310	H	0.256803	0.407533	0.15687
311	H	0.28304	0.393969	0.1336
312	C	0.25484	0.114943	0.047152
313	C	0.25416	0.098356	0.006576
314	C	0.253874	0.114381	0.299434
315	N	0.254727	0.143962	0.300368
316	C	0.253261	0.158707	0.005856
317	N	0.255429	0.144529	0.044849
318	O	0.259489	0.102879	0.087356
319	H	0.257309	0.106201	0.268927
320	C	0.25945	0.118901	0.128818
321	H	0.279987	0.144464	0.129605
322	H	0.262541	0.105426	0.156764
323	C	0.26847	0.247259	0.339697
324	C	0.252049	0.211678	0.339454
325	C	0.26908	0.193612	0.339096
326	C	0.303939	0.21124	0.338934
327	C	0.304044	0.263396	0.673123
328	C	0.250581	0.265391	0.339691
329	C	0.249972	0.319036	0.3391
330	C	0.267005	0.300974	0.339576
331	H	0.292169	0.315	0.339731
332	C	0.268662	0.024427	0.339596
333	C	0.304245	0.043596	0.339491
334	C	0.304671	0.095912	0.338968
335	C	0.2698	0.078959	0.672444
336	C	0.252514	0.043848	0.67291
337	C	0.250519	0.488408	0.339603
338	C	0.266673	0.468994	0.672984
339	C	0.249397	0.433884	0.672501
340	H	0.291815	0.479933	0.673403
341	C	0.264643	0.398063	0.380625
342	C	0.265049	0.414497	0.340059
343	C	0.265076	0.398336	0.63291
344	N	0.26405	0.368677	0.633997
345	C	0.265747	0.353913	0.33939
346	N	0.263923	0.368417	0.378282
347	O	0.260163	0.41025	0.420821
348	H	0.261268	0.406275	0.602444
349	C	0.259776	0.393984	0.462251
350	H	0.256803	0.407533	0.490203
351	H	0.28304	0.393969	0.466934
352	C	0.25484	0.114943	0.380487
353	C	0.25416	0.098356	0.33991
354	C	0.253874	0.114381	0.632769
355	N	0.254727	0.143962	0.6337
356	C	0.253261	0.158707	0.339188
357	N	0.255429	0.144529	0.378185
358	O	0.259489	0.102879	0.420689
359	H	0.257309	0.106201	0.602262
360	C	0.25945	0.118901	0.46215
361	H	0.279987	0.144464	0.46294
362	H	0.262541	0.105426	0.490098
363	C	0.26847	0.247259	0.673031
364	C	0.252049	0.211678	0.672788
365	C	0.26908	0.193612	0.672431
366	C	0.303939	0.21124	0.672268
367	C	0.304044	0.263396	0.006455
368	C	0.250581	0.265391	0.673021
369	C	0.249972	0.319036	0.672431
370	C	0.267005	0.300974	0.67291
371	H	0.292169	0.315	0.673065
372	C	0.268662	0.024427	0.67293
373	C	0.304245	0.043596	0.672822
374	C	0.304671	0.095912	0.672302
375	C	0.2698	0.078959	0.005778
376	C	0.252514	0.043848	0.006244
377	C	0.250519	0.488408	0.672937
378	C	0.266673	0.468994	0.006318
379	C	0.249397	0.433884	0.005835
380	H	0.291815	0.479933	0.006735
381	C	0.264643	0.398063	0.713959
382	C	0.265049	0.414497	0.673393
383	C	0.265076	0.398336	0.966244
384	N	0.26405	0.368677	0.967331
385	C	0.265747	0.353913	0.672724
386	N	0.263923	0.368417	0.711617
387	O	0.260163	0.41025	0.754155
388	H	0.261268	0.406275	0.935778
389	C	0.259776	0.393984	0.795586
390	H	0.256803	0.407533	0.823537
391	H	0.28304	0.393969	0.800268
392	C	0.25484	0.114943	0.713821
393	C	0.25416	0.098356	0.673244
394	C	0.253874	0.114381	0.966103
395	N	0.254727	0.143962	0.967034
396	C	0.253261	0.158707	0.672522
397	N	0.255429	0.144529	0.711515
398	O	0.259489	0.102879	0.754023
399	H	0.257309	0.106201	0.935596
400	C	0.25945	0.118901	0.795484
401	H	0.279987	0.144464	0.796274
402	H	0.262541	0.105426	0.823432
403	C	0.26847	0.747259	0.006365
404	C	0.252048	0.711678	0.006122
405	C	0.269079	0.693611	0.005765
406	C	0.303938	0.711239	0.005603
407	C	0.304043	0.763396	0.339789
408	C	0.25058	0.765391	0.006355
409	C	0.249971	0.819036	0.005765
410	C	0.267004	0.800974	0.006241
411	H	0.292169	0.814999	0.006398
412	C	0.268662	0.524428	0.006264
413	C	0.304246	0.543597	0.006156
414	C	0.30467	0.595912	0.005636
415	C	0.269801	0.578959	0.33911
416	C	0.252513	0.543847	0.339576
417	C	0.250517	0.988408	0.006271
418	C	0.266671	0.968993	0.33965
419	C	0.249396	0.933884	0.339167
420	H	0.291815	0.979932	0.340069
421	C	0.264642	0.898062	0.04729
422	C	0.265049	0.914497	0.006724
423	C	0.265077	0.898338	0.299576
424	N	0.264049	0.868677	0.300664
425	C	0.265746	0.853912	0.006058
426	N	0.263922	0.868416	0.044948
427	O	0.260162	0.910249	0.087488
428	H	0.261267	0.906275	0.269112
429	C	0.259776	0.893986	0.128917
430	H	0.256803	0.907533	0.15687
431	H	0.28304	0.893969	0.1336
432	C	0.254839	0.614942	0.047152
433	C	0.254159	0.598356	0.006576
434	C	0.253873	0.614381	0.299434
435	N	0.254727	0.643963	0.300368
436	C	0.25326	0.658708	0.005856
437	N	0.255428	0.644528	0.044849
438	O	0.259488	0.602879	0.087356
439	H	0.257308	0.606201	0.268927
440	C	0.25945	0.618902	0.128818
441	H	0.279987	0.644464	0.129605
442	H	0.26254	0.605425	0.156764
443	C	0.26847	0.747259	0.339697
444	C	0.252048	0.711678	0.339454
445	C	0.269079	0.693611	0.339096
446	C	0.303938	0.711239	0.338934
447	C	0.304043	0.763396	0.673123
448	C	0.25058	0.765391	0.339691
449	C	0.249971	0.819036	0.3391
450	C	0.267004	0.800974	0.339576
451	H	0.292169	0.814999	0.339731
452	C	0.268662	0.524428	0.339596
453	C	0.304246	0.543597	0.339491
454	C	0.30467	0.595912	0.338968
455	C	0.269801	0.578959	0.672444
456	C	0.252513	0.543847	0.67291
457	C	0.250517	0.988408	0.339603
458	C	0.266671	0.968993	0.672984
459	C	0.249396	0.933884	0.672501
460	H	0.291815	0.979932	0.673403
461	C	0.264642	0.898062	0.380625
462	C	0.265049	0.914497	0.340059
463	C	0.265077	0.898338	0.63291
464	N	0.264049	0.868677	0.633997
465	C	0.265746	0.853912	0.33939
466	N	0.263922	0.868416	0.378282
467	O	0.260162	0.910249	0.420821
468	H	0.261267	0.906275	0.602444
469	C	0.259776	0.893986	0.462251
470	H	0.256803	0.907533	0.490203
471	H	0.28304	0.893969	0.466934
472	C	0.254839	0.614942	0.380487
473	C	0.254159	0.598356	0.33991
474	C	0.253873	0.614381	0.632769
475	N	0.254727	0.643963	0.6337
476	C	0.25326	0.658708	0.339188
477	N	0.255428	0.644528	0.378185
478	O	0.259488	0.602879	0.420689
479	H	0.257308	0.606201	0.602262
480	C	0.25945	0.618902	0.46215
481	H	0.279987	0.644464	0.46294
482	H	0.26254	0.605425	0.490098
483	C	0.26847	0.747259	0.673031
484	C	0.252048	0.711678	0.672788
485	C	0.269079	0.693611	0.672431
486	C	0.303938	0.711239	0.672268
487	C	0.304043	0.763396	0.006455
488	C	0.25058	0.765391	0.673025
489	C	0.249971	0.819036	0.672431
490	C	0.267004	0.800974	0.67291
491	H	0.292169	0.814999	0.673065
492	C	0.268662	0.524428	0.67293
493	C	0.304246	0.543597	0.672822
494	C	0.30467	0.595912	0.672302
495	C	0.269801	0.578959	0.005778
496	C	0.252513	0.543847	0.006244
497	C	0.250517	0.988408	0.672937
498	C	0.266671	0.968993	0.006318
499	C	0.249396	0.933884	0.005835
500	H	0.291815	0.979932	0.006735
501	C	0.264642	0.898062	0.713959
502	C	0.265049	0.914497	0.673393
503	C	0.265077	0.898338	0.966244
504	N	0.264049	0.868677	0.967331
505	C	0.265746	0.853912	0.672724
506	N	0.263922	0.868416	0.711617
507	O	0.260162	0.910249	0.754155
508	H	0.261267	0.906275	0.935778
509	C	0.259776	0.893986	0.795586
510	H	0.256803	0.907533	0.823537
511	H	0.28304	0.893969	0.800268
512	C	0.254839	0.614942	0.713821
513	C	0.254159	0.598356	0.673244
514	C	0.253873	0.614381	0.966103
515	N	0.254727	0.643963	0.967034
516	C	0.25326	0.658708	0.672522
517	N	0.255428	0.644528	0.711515
518	O	0.259488	0.602879	0.754023
519	H	0.257308	0.606201	0.935596
520	C	0.25945	0.618902	0.795484
521	H	0.279987	0.644464	0.796274
522	H	0.26254	0.605425	0.823432
523	C	0.491518	0.247396	0.006345
524	C	0.472353	0.263818	0.006207
525	C	0.437253	0.24679	0.005694
526	C	0.420031	0.211932	0.005535
527	C	0.436972	0.194006	0.339012
528	C	0.472085	0.211827	0.33968
529	H	0.483496	0.288983	0.006395
530	H	0.483016	0.197618	0.340194
531	H	0.394529	0.19927	0.005532
532	C	0.321871	0.246109	0.339117
533	H	0.318252	0.288537	0.340298
534	H	0.316593	0.198394	0.005535
535	C	0.32231	0.078694	0.005751
536	H	0.318277	0.032464	0.006281
537	H	0.31751	0.121413	0.005619
538	C	0.372932	0.261511	0.047295
539	C	0.356932	0.261736	0.006628
540	C	0.373016	0.261669	0.299443
541	N	0.401686	0.260707	0.300595
542	C	0.418134	0.262565	0.006075
543	N	0.401896	0.260843	0.045001
544	O	0.356278	0.257161	0.087472
545	H	0.361215	0.257749	0.269002
546	C	0.372055	0.256598	0.128911
547	H	0.376552	0.235712	0.129471
548	H	0.355549	0.2537	0.156847
549	H	0.395416	0.279771	0.13366
550	C	0.401226	0.142938	0.047259
551	C	0.417559	0.158958	0.006645
552	C	0.401408	0.142839	0.299445
553	N	0.37178	0.114162	0.300494
554	C	0.357215	0.097792	0.005991
555	N	0.3716	0.113974	0.044984
556	O	0.413481	0.159623	0.087427
557	H	0.409344	0.154621	0.269
558	C	0.397215	0.143807	0.128885
559	H	0.37179	0.139198	0.129492
560	H	0.4108	0.160342	0.156808
561	H	0.397141	0.120503	0.133612
562	C	0.491518	0.247396	0.339677
563	C	0.472353	0.263818	0.339542
564	C	0.437253	0.24679	0.339026
565	C	0.420031	0.211932	0.338867
566	C	0.436972	0.194006	0.672346
567	C	0.472085	0.211827	0.673015
568	H	0.483496	0.288983	0.339728
569	H	0.483016	0.197618	0.673528
570	H	0.394529	0.19927	0.338864
571	C	0.321871	0.246109	0.672451
572	H	0.318252	0.288537	0.673632
573	H	0.316593	0.198394	0.338867
574	C	0.32231	0.078694	0.339083
575	H	0.318277	0.032464	0.339613
576	H	0.31751	0.121413	0.338951
577	C	0.372932	0.261511	0.380629
578	C	0.356932	0.261736	0.339961
579	C	0.373016	0.261669	0.632779
580	N	0.401686	0.260707	0.63393
581	C	0.418134	0.262565	0.339407
582	N	0.401896	0.260843	0.378333
583	O	0.356278	0.257161	0.420807
584	H	0.361215	0.257749	0.602336
585	C	0.372055	0.256598	0.462245
586	H	0.376552	0.235712	0.462805
587	H	0.355549	0.2537	0.490179
588	H	0.395416	0.279771	0.466994
589	C	0.401226	0.142938	0.380592
590	C	0.417559	0.158958	0.339978
591	C	0.401408	0.142839	0.632779
592	N	0.37178	0.114162	0.633829
593	C	0.357215	0.097792	0.339323
594	N	0.3716	0.113974	0.378316
595	O	0.413481	0.159623	0.42076
596	H	0.409344	0.154621	0.602333
597	C	0.397215	0.143807	0.462218
598	H	0.37179	0.139198	0.462825
599	H	0.4108	0.160342	0.490142
600	H	0.397141	0.120503	0.466947
601	C	0.491518	0.247396	0.673011
602	C	0.472353	0.263818	0.672873
603	C	0.437253	0.24679	0.67236
604	C	0.420031	0.211932	0.672201
605	C	0.436972	0.194006	0.00568
606	C	0.472085	0.211827	0.006349
607	H	0.483496	0.288983	0.673062
608	H	0.483016	0.197618	0.006861
609	H	0.394529	0.19927	0.672198
610	C	0.321871	0.246109	0.005785
611	H	0.318252	0.288537	0.006965
612	H	0.316593	0.198394	0.672201
613	C	0.32231	0.078694	0.672417
614	H	0.318277	0.032464	0.672947
615	H	0.31751	0.121413	0.672285
616	C	0.372932	0.261511	0.713963
617	C	0.356932	0.261736	0.673295
618	C	0.373016	0.261669	0.966109
619	N	0.401686	0.260707	0.967264
620	C	0.418134	0.262565	0.672741
621	N	0.401896	0.260843	0.711667
622	O	0.356278	0.257161	0.754141
623	H	0.361215	0.257749	0.93567
624	C	0.372055	0.256598	0.795579
625	H	0.376552	0.235712	0.796139
626	H	0.355549	0.2537	0.823513
627	H	0.395416	0.279771	0.800328
628	C	0.401226	0.142938	0.713926
629	C	0.417559	0.158958	0.673312
630	C	0.401408	0.142839	0.966113
631	N	0.37178	0.114162	0.967163
632	C	0.357215	0.097792	0.672657
633	N	0.3716	0.113974	0.71165
634	O	0.413481	0.159623	0.754094
635	H	0.409344	0.154621	0.935667
636	C	0.397215	0.143807	0.795552
637	H	0.37179	0.139198	0.796159
638	H	0.4108	0.160342	0.823476
639	H	0.397141	0.120503	0.800278
640	C	0.491518	0.747395	0.006345
641	C	0.472353	0.763818	0.006207
642	C	0.437252	0.74679	0.005694
643	C	0.420029	0.711931	0.005535
644	C	0.436972	0.694006	0.339012
645	C	0.472084	0.711827	0.33968
646	H	0.483494	0.788983	0.006395
647	H	0.483016	0.697618	0.340194
648	H	0.394528	0.69927	0.005532
649	C	0.32187	0.746108	0.339117
650	H	0.318251	0.788536	0.340298
651	H	0.316593	0.698395	0.005535
652	C	0.322309	0.578694	0.005751
653	H	0.318276	0.532464	0.006281
654	H	0.317509	0.621412	0.005619
655	C	0.372931	0.76151	0.047295
656	C	0.356932	0.761738	0.006628
657	C	0.373015	0.761669	0.299443
658	N	0.401684	0.760706	0.300595
659	C	0.418135	0.762567	0.006075
660	N	0.401894	0.760843	0.045001
661	O	0.356277	0.757161	0.087472
662	H	0.361214	0.757749	0.269002
663	C	0.372054	0.756598	0.128911
664	H	0.376552	0.735712	0.129471
665	H	0.355547	0.7537	0.156847
666	H	0.395415	0.779771	0.13366
667	C	0.401225	0.642938	0.047259
668	C	0.417558	0.658958	0.006645
669	C	0.401407	0.642839	0.299445
670	N	0.37178	0.614163	0.300494
671	C	0.357215	0.59779	0.005991
672	N	0.371599	0.613974	0.044984
673	O	0.41348	0.659623	0.087427
674	H	0.409343	0.654621	0.269
675	C	0.397213	0.643806	0.128885
676	H	0.371791	0.639199	0.129492
677	H	0.410799	0.660343	0.156808
678	H	0.397141	0.620502	0.133612
679	C	0.491518	0.747395	0.339677
680	C	0.472353	0.763818	0.339542
681	C	0.437252	0.74679	0.339026
682	C	0.420029	0.711931	0.338867
683	C	0.436972	0.694006	0.672346
684	C	0.472084	0.711827	0.673015
685	H	0.483494	0.788983	0.339728
686	H	0.483016	0.697618	0.673528
687	H	0.394528	0.69927	0.338864
688	C	0.32187	0.746108	0.672451
689	H	0.318251	0.788536	0.673632
690	H	0.316593	0.698395	0.338867
691	C	0.322309	0.578694	0.339083
692	H	0.318276	0.532464	0.339613
693	H	0.317509	0.621412	0.338951
694	C	0.372931	0.76151	0.380629
695	C	0.356932	0.761738	0.339961
696	C	0.373015	0.761669	0.632779
697	N	0.401684	0.760706	0.63393
698	C	0.418135	0.762567	0.339407
699	N	0.401894	0.760843	0.378333
700	O	0.356277	0.757161	0.420807
701	H	0.361214	0.757749	0.602336
702	C	0.372054	0.756598	0.462245
703	H	0.376552	0.735712	0.462805
704	H	0.355547	0.7537	0.490179
705	H	0.395415	0.779771	0.466994
706	C	0.401225	0.642938	0.380592
707	C	0.417558	0.658958	0.339978
708	C	0.401407	0.642839	0.632779
709	N	0.37178	0.614163	0.633829
710	C	0.357215	0.59779	0.339323
711	N	0.371599	0.613974	0.378316
712	O	0.41348	0.659623	0.42076
713	H	0.409343	0.654621	0.602333
714	C	0.397213	0.643806	0.462218
715	H	0.371791	0.639199	0.462825
716	H	0.410799	0.660343	0.490142
717	H	0.397141	0.620502	0.466947
718	C	0.491518	0.747395	0.673011
719	C	0.472353	0.763818	0.672873
720	C	0.437252	0.74679	0.67236
721	C	0.420029	0.711931	0.672201
722	C	0.436972	0.694006	0.00568
723	C	0.472084	0.711827	0.006349
724	H	0.483494	0.788983	0.673062
725	H	0.483016	0.697618	0.006861
726	H	0.394528	0.69927	0.672198
727	C	0.32187	0.746108	0.005785
728	H	0.318251	0.788536	0.006965
729	H	0.316593	0.698395	0.672201
730	C	0.322309	0.578694	0.672417
731	H	0.318276	0.532464	0.672947
732	H	0.317509	0.621412	0.672285
733	C	0.372931	0.76151	0.713963
734	C	0.356932	0.761738	0.673295
735	C	0.373015	0.761669	0.966109
736	N	0.401684	0.760706	0.967264
737	C	0.418135	0.762567	0.672741
738	N	0.401894	0.760843	0.711667
739	O	0.356277	0.757161	0.754141
740	H	0.361214	0.757749	0.93567
741	C	0.372054	0.756598	0.795579
742	H	0.376552	0.735712	0.796139
743	H	0.355547	0.7537	0.823513
744	H	0.395415	0.779771	0.800328
745	C	0.401225	0.642938	0.713926
746	C	0.417558	0.658958	0.673312
747	C	0.401407	0.642839	0.966113
748	N	0.37178	0.614163	0.967163
749	C	0.357215	0.59779	0.672657
750	N	0.371599	0.613974	0.71165
751	O	0.41348	0.659623	0.754094
752	H	0.409343	0.654621	0.935667
753	C	0.397213	0.643806	0.795552
754	H	0.371791	0.639199	0.796159
755	H	0.410799	0.660343	0.823476
756	H	0.397141	0.620502	0.800278
757	C	0.991519	0.247396	0.006345
758	C	0.972354	0.263818	0.006207
759	C	0.937252	0.24679	0.005694
760	C	0.92003	0.211932	0.005535
761	C	0.936973	0.194006	0.339012
762	C	0.972084	0.211827	0.33968
763	H	0.983495	0.288983	0.006395
764	H	0.983017	0.197618	0.340194
765	H	0.894528	0.19927	0.005532
766	C	0.527542	0.265259	0.006362
767	C	0.546975	0.30083	0.339724
768	C	0.582088	0.318649	0.339191
769	C	0.59903	0.300721	0.0057
770	C	0.581809	0.265862	0.005856
771	C	0.546707	0.248837	0.006156
772	H	0.536044	0.315039	0.340133
773	H	0.624532	0.31338	0.00563
774	H	0.535562	0.223673	0.006187
775	C	0.768469	0.247259	0.006365
776	C	0.75205	0.211678	0.006122
777	C	0.76908	0.193612	0.005765
778	C	0.80394	0.21124	0.005603
779	C	0.821871	0.246109	0.339117
780	C	0.804043	0.263396	0.339789
781	H	0.726884	0.197654	0.006163
782	H	0.818252	0.288537	0.340298
783	H	0.816592	0.198394	0.005535
784	C	0.75058	0.265391	0.006355
785	C	0.715007	0.249254	0.33964
786	C	0.697179	0.266542	0.33911
787	C	0.715114	0.301411	0.005606
788	C	0.749973	0.319036	0.005765
789	C	0.767005	0.300974	0.006241
790	H	0.700796	0.224111	0.340069
791	H	0.70246	0.314258	0.005549
792	H	0.79217	0.315	0.006398
793	C	0.768661	0.024427	0.006264
794	C	0.804246	0.043596	0.006156
795	C	0.822309	0.078694	0.005751
796	C	0.80467	0.095912	0.005636
797	C	0.769802	0.078959	0.33911
798	C	0.752515	0.043848	0.339576
799	H	0.818276	0.032464	0.006281
800	H	0.72737	0.032909	0.339974
801	H	0.817509	0.121413	0.005619
802	C	0.750519	0.488408	0.006271
803	C	0.766674	0.468994	0.33965
804	C	0.749396	0.433884	0.339167
805	C	0.714528	0.416924	0.005775
806	C	0.696881	0.434135	0.005822
807	C	0.714934	0.469234	0.006109
808	H	0.791816	0.479933	0.340069
809	H	0.701701	0.391424	0.005819
810	H	0.700899	0.480364	0.006187
811	C	0.64632	0.251676	0.047183
812	C	0.662127	0.250931	0.006542
813	C	0.645792	0.250582	0.299416
814	N	0.617071	0.251455	0.300419
815	C	0.600917	0.250061	0.005943
816	N	0.617329	0.252284	0.044905
817	O	0.663075	0.25636	0.087357
818	H	0.657376	0.253978	0.268893
819	C	0.64702	0.256283	0.128843
820	H	0.641956	0.276794	0.129663
821	H	0.66361	0.259394	0.156769
822	H	0.623941	0.232801	0.133376
823	C	0.764643	0.398063	0.04729
824	C	0.765048	0.414497	0.006724
825	C	0.765076	0.398336	0.299576
826	N	0.76405	0.368677	0.300664
827	C	0.765746	0.353913	0.006058
828	N	0.763922	0.368417	0.044948
829	O	0.760163	0.41025	0.087488
830	H	0.761268	0.406275	0.269112
831	C	0.759776	0.393984	0.128917
832	H	0.739001	0.368543	0.129518
833	H	0.756802	0.407533	0.15687
834	H	0.783041	0.393969	0.1336
835	C	0.617921	0.369561	0.047228
836	C	0.601507	0.353702	0.006559
837	C	0.617631	0.369982	0.299491
838	N	0.647232	0.398681	0.300649
839	C	0.662007	0.415004	0.006129
840	N	0.647535	0.398527	0.04496
841	O	0.605726	0.35288	0.087424
842	H	0.609564	0.358373	0.268959
843	C	0.621877	0.368821	0.128883
844	H	0.647358	0.3736	0.129598
845	H	0.608324	0.352287	0.156824
846	H	0.621773	0.392046	0.133484
847	C	0.872931	0.261511	0.047295
848	C	0.856931	0.261736	0.006628
849	C	0.873015	0.261669	0.299443
850	N	0.901684	0.260707	0.300595
851	C	0.918133	0.262565	0.006075
852	N	0.901894	0.260843	0.045001
853	O	0.856277	0.257161	0.087472
854	H	0.861214	0.257749	0.269002
855	C	0.872054	0.256598	0.128911
856	H	0.876553	0.235712	0.129471
857	H	0.855548	0.2537	0.156847
858	H	0.895415	0.279771	0.13366
859	C	0.75484	0.114943	0.047152
860	C	0.754161	0.098356	0.006576
861	C	0.753873	0.114381	0.299434
862	N	0.754727	0.143962	0.300368
863	C	0.75326	0.158707	0.005856
864	N	0.75543	0.144529	0.044849
865	O	0.759489	0.102879	0.087356
866	H	0.757308	0.106201	0.268927
867	C	0.759451	0.118901	0.128818
868	H	0.779987	0.144464	0.129605
869	H	0.762541	0.105426	0.156764
870	H	0.735989	0.118543	0.133344
871	C	0.901224	0.142938	0.047259
872	C	0.917558	0.158958	0.006645
873	C	0.901407	0.142839	0.299445
874	N	0.871781	0.114162	0.300494
875	C	0.857216	0.097792	0.005991
876	N	0.871599	0.113974	0.044984
877	O	0.91348	0.159623	0.087427
878	H	0.909343	0.154621	0.269
879	C	0.897213	0.143807	0.128885
880	H	0.871791	0.139198	0.129492
881	H	0.910799	0.160342	0.156808
882	H	0.897143	0.120503	0.133612
883	C	0.991519	0.247396	0.339677
884	C	0.972354	0.263818	0.339542
885	C	0.937252	0.24679	0.339026
886	C	0.92003	0.211932	0.338867
887	C	0.936973	0.194006	0.672346
888	C	0.972084	0.211827	0.673015
889	H	0.983495	0.288983	0.339728
890	H	0.983017	0.197618	0.673528
891	H	0.894528	0.19927	0.338864
892	C	0.527542	0.265259	0.339694
893	C	0.546975	0.30083	0.673055
894	C	0.582088	0.318649	0.672525
895	C	0.59903	0.300721	0.339032
896	C	0.581809	0.265862	0.339188
897	C	0.546707	0.248837	0.339488
898	H	0.536044	0.315039	0.673467
899	H	0.624532	0.31338	0.338961
900	H	0.535562	0.223673	0.339518
901	C	0.768469	0.247259	0.339697
902	C	0.75205	0.211678	0.339454
903	C	0.76908	0.193612	0.339096
904	C	0.80394	0.21124	0.338934
905	C	0.821871	0.246109	0.672451
906	C	0.804043	0.263396	0.673123
907	H	0.726884	0.197654	0.339495
908	H	0.818252	0.288537	0.673632
909	H	0.816592	0.198394	0.338867
910	C	0.75058	0.265391	0.339691
911	C	0.715007	0.249254	0.672974
912	C	0.697179	0.266542	0.672444
913	C	0.715114	0.301411	0.338938
914	C	0.749973	0.319036	0.3391
915	C	0.767005	0.300974	0.339576
916	H	0.700796	0.224111	0.673403
917	H	0.70246	0.314258	0.33888
918	H	0.79217	0.315	0.339731
919	C	0.768661	0.024427	0.339596
920	C	0.804246	0.043596	0.339491
921	C	0.822309	0.078694	0.339083
922	C	0.80467	0.095912	0.338968
923	C	0.769802	0.078959	0.672444
924	C	0.752515	0.043848	0.67291
925	H	0.818276	0.032464	0.339613
926	H	0.72737	0.032909	0.673305
927	H	0.817509	0.121413	0.338951
928	C	0.750519	0.488408	0.339603
929	C	0.766674	0.468994	0.672984
930	C	0.749396	0.433884	0.672501
931	C	0.714528	0.416924	0.339107
932	C	0.696881	0.434135	0.339154
933	C	0.714934	0.469234	0.339441
934	H	0.791816	0.479933	0.673403
935	H	0.701701	0.391424	0.339151
936	H	0.700899	0.480364	0.339522
937	C	0.64632	0.251676	0.380517
938	C	0.662127	0.250931	0.339876
939	C	0.645792	0.250582	0.632748
940	N	0.617071	0.251455	0.633754
941	C	0.600917	0.250061	0.339275
942	N	0.617329	0.252284	0.378239
943	O	0.663075	0.25636	0.420692
944	H	0.657376	0.253978	0.602228
945	C	0.64702	0.256283	0.462177
946	H	0.641956	0.276794	0.462998
947	H	0.66361	0.259394	0.490102
948	H	0.623941	0.232801	0.466711
949	C	0.764643	0.398063	0.380625
950	C	0.765048	0.414497	0.340059
951	C	0.765076	0.398336	0.63291
952	N	0.76405	0.368677	0.633997
953	C	0.765746	0.353913	0.33939
954	N	0.763922	0.368417	0.378282
955	O	0.760163	0.41025	0.420821
956	H	0.761268	0.406275	0.602444
957	C	0.759776	0.393984	0.462251
958	H	0.739001	0.368543	0.462852
959	H	0.756802	0.407533	0.490203
960	H	0.783041	0.393969	0.466934
961	C	0.617921	0.369561	0.380561
962	C	0.601507	0.353702	0.339893
963	C	0.617631	0.369982	0.632826
964	N	0.647232	0.398681	0.633984
965	C	0.662007	0.415004	0.339461
966	N	0.647535	0.398527	0.378293
967	O	0.605726	0.35288	0.420756
968	H	0.609564	0.358373	0.602292
969	C	0.621877	0.368821	0.462218
970	H	0.647358	0.3736	0.462933
971	H	0.608324	0.352287	0.490156
972	H	0.621773	0.392046	0.466819
973	C	0.872931	0.261511	0.380629
974	C	0.856931	0.261736	0.339961
975	C	0.873015	0.261669	0.632779
976	N	0.901684	0.260707	0.63393
977	C	0.918133	0.262565	0.339407
978	N	0.901894	0.260843	0.378333
979	O	0.856277	0.257161	0.420807
980	H	0.861214	0.257749	0.602336
981	C	0.872054	0.256598	0.462245
982	H	0.876553	0.235712	0.462805
983	H	0.855548	0.2537	0.490179
984	H	0.895415	0.279771	0.466994
985	C	0.75484	0.114943	0.380487
986	C	0.754161	0.098356	0.33991
987	C	0.753873	0.114381	0.632769
988	N	0.754727	0.143962	0.6337
989	C	0.75326	0.158707	0.339188
990	N	0.75543	0.144529	0.378185
991	O	0.759489	0.102879	0.420689
992	H	0.757308	0.106201	0.602262
993	C	0.759451	0.118901	0.46215
994	H	0.779987	0.144464	0.46294
995	H	0.762541	0.105426	0.490098
996	H	0.735989	0.118543	0.466677
997	C	0.901224	0.142938	0.380592
998	C	0.917558	0.158958	0.339978
999	C	0.901407	0.142839	0.632779
1000	N	0.871781	0.114162	0.633829
1001	C	0.857216	0.097792	0.339323
1002	N	0.871599	0.113974	0.378316
1003	O	0.91348	0.159623	0.42076
1004	H	0.909343	0.154621	0.602333
1005	C	0.897213	0.143807	0.462218
1006	H	0.871791	0.139198	0.462825
1007	H	0.910799	0.160342	0.490142
1008	H	0.897143	0.120503	0.466947
1009	C	0.991519	0.247396	0.673011
1010	C	0.972354	0.263818	0.672873
1011	C	0.937252	0.24679	0.67236
1012	C	0.92003	0.211932	0.672201
1013	C	0.936973	0.194006	0.00568
1014	C	0.972084	0.211827	0.006349
1015	H	0.983495	0.288983	0.673062
1016	H	0.983017	0.197618	0.006861
1017	H	0.894528	0.19927	0.672198
1018	C	0.527542	0.265259	0.673028
1019	C	0.546975	0.30083	0.006389
1020	C	0.582088	0.318649	0.005856
1021	C	0.59903	0.300721	0.672366
1022	C	0.581809	0.265862	0.672522
1023	C	0.546707	0.248837	0.672822
1024	H	0.536044	0.315039	0.0068
1025	H	0.624532	0.31338	0.672295
1026	H	0.535562	0.223673	0.672853
1027	C	0.768469	0.247259	0.673031
1028	C	0.75205	0.211678	0.672788
1029	C	0.76908	0.193612	0.672431
1030	C	0.80394	0.21124	0.672268
1031	C	0.821871	0.246109	0.005785
1032	C	0.804043	0.263396	0.006455
1033	H	0.726884	0.197654	0.672829
1034	H	0.818252	0.288537	0.006965
1035	H	0.816592	0.198394	0.672201
1036	C	0.75058	0.265391	0.673021
1037	C	0.715007	0.249254	0.006308
1038	C	0.697179	0.266542	0.005775
1039	C	0.715114	0.301411	0.672272
1040	C	0.749973	0.319036	0.672431
1041	C	0.767005	0.300974	0.67291
1042	H	0.700796	0.224111	0.006734
1043	H	0.70246	0.314258	0.672214
1044	H	0.79217	0.315	0.673065
1045	C	0.768661	0.024427	0.67293
1046	C	0.804246	0.043596	0.672822
1047	C	0.822309	0.078694	0.672417
1048	C	0.80467	0.095912	0.672302
1049	C	0.769802	0.078959	0.005778
1050	C	0.752515	0.043848	0.006244
1051	H	0.818276	0.032464	0.672947
1052	H	0.72737	0.032909	0.006639
1053	H	0.817509	0.121413	0.672285
1054	C	0.750519	0.488408	0.672937
1055	C	0.766674	0.468994	0.006318
1056	C	0.749396	0.433884	0.005835
1057	C	0.714528	0.416924	0.672441
1058	C	0.696881	0.434135	0.672488
1059	C	0.714934	0.469234	0.672775
1060	H	0.791816	0.479933	0.006735
1061	H	0.701701	0.391424	0.672485
1062	H	0.700899	0.480364	0.672853
1063	C	0.64632	0.251676	0.713851
1064	C	0.662127	0.250931	0.67321
1065	C	0.645792	0.250582	0.966082
1066	N	0.617071	0.251455	0.967085
1067	C	0.600917	0.250061	0.672609
1068	N	0.617329	0.252284	0.711573
1069	O	0.663075	0.25636	0.754023
1070	H	0.657376	0.253978	0.935559
1071	C	0.64702	0.256283	0.795511
1072	H	0.641956	0.276794	0.796332
1073	H	0.66361	0.259394	0.823436
1074	H	0.623941	0.232801	0.800045
1075	C	0.764643	0.398063	0.713959
1076	C	0.765048	0.414497	0.673393
1077	C	0.765076	0.398336	0.966244
1078	N	0.76405	0.368677	0.967331
1079	C	0.765746	0.353913	0.672724
1080	N	0.763922	0.368417	0.711617
1081	O	0.760163	0.41025	0.754155
1082	H	0.761268	0.406275	0.935778
1083	C	0.759776	0.393984	0.795586
1084	H	0.739001	0.368543	0.796186
1085	H	0.756802	0.407533	0.823537
1086	H	0.783041	0.393969	0.800268
1087	C	0.617921	0.369561	0.713895
1088	C	0.601507	0.353702	0.673227
1089	C	0.617631	0.369982	0.966157
1090	N	0.647232	0.398681	0.967318
1091	C	0.662007	0.415004	0.672795
1092	N	0.647535	0.398527	0.711627
1093	O	0.605726	0.35288	0.754091
1094	H	0.609564	0.358373	0.935626
1095	C	0.621877	0.368821	0.795552
1096	H	0.647358	0.3736	0.796267
1097	H	0.608324	0.352287	0.82349
1098	H	0.621773	0.392046	0.80015
1099	C	0.872931	0.261511	0.713963
1100	C	0.856931	0.261736	0.673295
1101	C	0.873015	0.261669	0.966109
1102	N	0.901684	0.260707	0.967264
1103	C	0.918133	0.262565	0.672741
1104	N	0.901894	0.260843	0.711667
1105	O	0.856277	0.257161	0.754141
1106	H	0.861214	0.257749	0.93567
1107	C	0.872054	0.256598	0.795579
1108	H	0.876553	0.235712	0.796139
1109	H	0.855548	0.2537	0.823513
1110	H	0.895415	0.279771	0.800328
1111	C	0.75484	0.114943	0.713821
1112	C	0.754161	0.098356	0.673244
1113	C	0.753873	0.114381	0.966103
1114	N	0.754727	0.143962	0.967034
1115	C	0.75326	0.158707	0.672522
1116	N	0.75543	0.144529	0.711515
1117	O	0.759489	0.102879	0.754023
1118	H	0.757308	0.106201	0.935596
1119	C	0.759451	0.118901	0.795484
1120	H	0.779987	0.144464	0.796274
1121	H	0.762541	0.105426	0.823432
1122	H	0.735989	0.118543	0.800011
1123	C	0.901224	0.142938	0.713926
1124	C	0.917558	0.158958	0.673312
1125	C	0.901407	0.142839	0.966113
1126	N	0.871781	0.114162	0.967163
1127	C	0.857216	0.097792	0.672657
1128	N	0.871599	0.113974	0.71165
1129	O	0.91348	0.159623	0.754094
1130	H	0.909343	0.154621	0.935667
1131	C	0.897213	0.143807	0.795552
1132	H	0.871791	0.139198	0.796159
1133	H	0.910799	0.160342	0.823476
1134	H	0.897143	0.120503	0.800278
1135	C	0.991517	0.747395	0.006345
1136	C	0.972352	0.763818	0.006207
1137	C	0.937251	0.74679	0.005694
1138	C	0.920028	0.711931	0.005535
1139	C	0.936972	0.694006	0.339012
1140	C	0.972083	0.711827	0.33968
1141	H	0.983493	0.788983	0.006395
1142	H	0.983017	0.697618	0.340194
1143	H	0.894527	0.69927	0.005532
1144	C	0.527542	0.765262	0.006362
1145	C	0.546975	0.80083	0.339724
1146	C	0.582087	0.818649	0.339191
1147	C	0.599029	0.800721	0.0057
1148	C	0.581807	0.765862	0.005856
1149	C	0.546705	0.748837	0.006156
1150	H	0.536042	0.815039	0.340133
1151	H	0.62453	0.813379	0.00563
1152	H	0.535563	0.723674	0.006187
1153	C	0.76847	0.747259	0.006365
1154	C	0.752049	0.711678	0.006122
1155	C	0.769078	0.693611	0.005765
1156	C	0.803938	0.711239	0.005603
1157	C	0.821871	0.746108	0.339117
1158	C	0.804044	0.763396	0.339789
1159	H	0.726885	0.697655	0.006163
1160	H	0.818251	0.788536	0.340298
1161	H	0.816594	0.698395	0.005535
1162	C	0.750581	0.765391	0.006355
1163	C	0.715008	0.749254	0.33964
1164	C	0.69718	0.766542	0.33911
1165	C	0.715115	0.80141	0.005606
1166	C	0.749972	0.819036	0.005765
1167	C	0.767004	0.800974	0.006241
1168	H	0.700797	0.724111	0.340069
1169	H	0.702459	0.814257	0.005549
1170	H	0.792168	0.814999	0.006398
1171	C	0.76866	0.524428	0.006264
1172	C	0.804246	0.543597	0.006156
1173	C	0.82231	0.578694	0.005751
1174	C	0.804671	0.595912	0.005636
1175	C	0.7698	0.578959	0.33911
1176	C	0.752513	0.543847	0.339576
1177	H	0.818277	0.532464	0.006281
1178	H	0.727371	0.532908	0.339974
1179	H	0.817509	0.621412	0.005619
1180	C	0.750518	0.988408	0.006271
1181	C	0.766672	0.968993	0.33965
1182	C	0.749397	0.933884	0.339167
1183	C	0.714527	0.916923	0.005775
1184	C	0.696884	0.934137	0.005822
1185	C	0.714934	0.969236	0.006109
1186	H	0.791815	0.979932	0.340069
1187	H	0.701699	0.891423	0.005819
1188	H	0.700899	0.980364	0.006187
1189	C	0.64632	0.751675	0.047183
1190	C	0.662128	0.750931	0.006542
1191	C	0.645791	0.750581	0.299416
1192	N	0.61707	0.751454	0.300419
1193	C	0.600918	0.75006	0.005943
1194	N	0.617327	0.752283	0.044905
1195	O	0.663076	0.756359	0.087357
1196	H	0.657377	0.753978	0.268893
1197	C	0.647021	0.756283	0.128843
1198	H	0.641955	0.776793	0.129663
1199	H	0.663609	0.759394	0.156769
1200	H	0.623939	0.732799	0.133376
1201	C	0.764642	0.898062	0.04729
1202	C	0.765049	0.914497	0.006724
1203	C	0.765076	0.898338	0.299576
1204	N	0.764049	0.868677	0.300664
1205	C	0.765747	0.853912	0.006058
1206	N	0.763923	0.868416	0.044948
1207	O	0.760162	0.910249	0.087488
1208	H	0.761267	0.906275	0.269112
1209	C	0.759776	0.893986	0.128917
1210	H	0.738999	0.868543	0.129518
1211	H	0.756803	0.907533	0.15687
1212	H	0.78304	0.893969	0.1336
1213	C	0.61792	0.86956	0.047228
1214	C	0.601506	0.853701	0.006559
1215	C	0.617631	0.869982	0.299491
1216	N	0.647232	0.89868	0.300649
1217	C	0.662007	0.915003	0.006129
1218	N	0.647535	0.898526	0.04496
1219	O	0.605725	0.85288	0.087424
1220	H	0.609563	0.858373	0.268959
1221	C	0.621877	0.868821	0.128883
1222	H	0.647357	0.873599	0.129598
1223	H	0.608323	0.852287	0.156824
1224	H	0.621771	0.892046	0.133484
1225	C	0.872932	0.76151	0.047295
1226	C	0.856931	0.761738	0.006628
1227	C	0.873016	0.761669	0.299443
1228	N	0.901683	0.760706	0.300595
1229	C	0.918135	0.762567	0.006075
1230	N	0.901893	0.760843	0.045001
1231	O	0.856278	0.757161	0.087472
1232	H	0.861213	0.757749	0.269002
1233	C	0.872055	0.756598	0.128911
1234	H	0.876552	0.735712	0.129471
1235	H	0.855546	0.7537	0.156847
1236	H	0.895416	0.779771	0.13366
1237	C	0.754838	0.614942	0.047152
1238	C	0.75416	0.598356	0.006576
1239	C	0.753874	0.614381	0.299434
1240	N	0.754727	0.643963	0.300368
1241	C	0.75326	0.658708	0.005856
1242	N	0.755428	0.644528	0.044849
1243	O	0.759487	0.602879	0.087356
1244	H	0.757309	0.606201	0.268927
1245	C	0.75945	0.618902	0.128818
1246	H	0.779988	0.644464	0.129605
1247	H	0.762539	0.605425	0.156764
1248	H	0.735987	0.618542	0.133344
1249	C	0.901225	0.642938	0.047259
1250	C	0.917557	0.658958	0.006645
1251	C	0.901408	0.642839	0.299445
1252	N	0.87178	0.614163	0.300494
1253	C	0.857214	0.59779	0.005991
1254	N	0.8716	0.613974	0.044984
1255	O	0.913481	0.659623	0.087427
1256	H	0.909342	0.654621	0.269
1257	C	0.897212	0.643806	0.128885
1258	H	0.871791	0.639199	0.129492
1259	H	0.910798	0.660343	0.156808
1260	H	0.897141	0.620502	0.133612
1261	C	0.991517	0.747395	0.339677
1262	C	0.972352	0.763818	0.339542
1263	C	0.937251	0.74679	0.339026
1264	C	0.920028	0.711931	0.338867
1265	C	0.936972	0.694006	0.672346
1266	C	0.972083	0.711827	0.673015
1267	H	0.983493	0.788983	0.339728
1268	H	0.983017	0.697618	0.673528
1269	H	0.894527	0.69927	0.338864
1270	C	0.527542	0.765262	0.339694
1271	C	0.546975	0.80083	0.673055
1272	C	0.582087	0.818649	0.672525
1273	C	0.599029	0.800721	0.339032
1274	C	0.581807	0.765862	0.339188
1275	C	0.546705	0.748837	0.339488
1276	H	0.536042	0.815039	0.673467
1277	H	0.62453	0.813379	0.338961
1278	H	0.535563	0.723674	0.339518
1279	C	0.76847	0.747259	0.339697
1280	C	0.752049	0.711678	0.339454
1281	C	0.769078	0.693611	0.339096
1282	C	0.803938	0.711239	0.338934
1283	C	0.821871	0.746108	0.672451
1284	C	0.804044	0.763396	0.673123
1285	H	0.726885	0.697655	0.339495
1286	H	0.818251	0.788536	0.673632
1287	H	0.816594	0.698395	0.338867
1288	C	0.750581	0.765391	0.339691
1289	C	0.715008	0.749254	0.672974
1290	C	0.69718	0.766542	0.672444
1291	C	0.715115	0.80141	0.338938
1292	C	0.749972	0.819036	0.3391
1293	C	0.767004	0.800974	0.339576
1294	H	0.700797	0.724111	0.673403
1295	H	0.702459	0.814257	0.33888
1296	H	0.792168	0.814999	0.339731
1297	C	0.76866	0.524428	0.339596
1298	C	0.804246	0.543597	0.339491
1299	C	0.82231	0.578694	0.339083
1300	C	0.804671	0.595912	0.338968
1301	C	0.7698	0.578959	0.672444
1302	C	0.752513	0.543847	0.67291
1303	H	0.818277	0.532464	0.339613
1304	H	0.727371	0.532908	0.673305
1305	H	0.817509	0.621412	0.338951
1306	C	0.750518	0.988408	0.339603
1307	C	0.766672	0.968993	0.672984
1308	C	0.749397	0.933884	0.672501
1309	C	0.714527	0.916923	0.339107
1310	C	0.696884	0.934137	0.339154
1311	C	0.714934	0.969236	0.339441
1312	H	0.791815	0.979932	0.673403
1313	H	0.701699	0.891423	0.339151
1314	H	0.700899	0.980364	0.339522
1315	C	0.64632	0.751675	0.380517
1316	C	0.662128	0.750931	0.339876
1317	C	0.645791	0.750581	0.632748
1318	N	0.61707	0.751454	0.633754
1319	C	0.600918	0.75006	0.339275
1320	N	0.617327	0.752283	0.378239
1321	O	0.663076	0.756359	0.420692
1322	H	0.657377	0.753978	0.602228
1323	C	0.647021	0.756283	0.462177
1324	H	0.641955	0.776793	0.462998
1325	H	0.663609	0.759394	0.490102
1326	H	0.623939	0.732799	0.466711
1327	C	0.764642	0.898062	0.380625
1328	C	0.765049	0.914497	0.340059
1329	C	0.765076	0.898338	0.63291
1330	N	0.764049	0.868677	0.633997
1331	C	0.765747	0.853912	0.33939
1332	N	0.763923	0.868416	0.378282
1333	O	0.760162	0.910249	0.420821
1334	H	0.761267	0.906275	0.602444
1335	C	0.759776	0.893986	0.462251
1336	H	0.738999	0.868543	0.462852
1337	H	0.756803	0.907533	0.490203
1338	H	0.78304	0.893969	0.466934
1339	C	0.61792	0.86956	0.380561
1340	C	0.601506	0.853701	0.339893
1341	C	0.617631	0.869982	0.632826
1342	N	0.647232	0.89868	0.633984
1343	C	0.662007	0.915003	0.339461
1344	N	0.647535	0.898526	0.378293
1345	O	0.605725	0.85288	0.420756
1346	H	0.609563	0.858373	0.602292
1347	C	0.621877	0.868821	0.462218
1348	H	0.647357	0.873599	0.462933
1349	H	0.608323	0.852287	0.490156
1350	H	0.621771	0.892046	0.466819
1351	C	0.872932	0.76151	0.380629
1352	C	0.856931	0.761738	0.339961
1353	C	0.873016	0.761669	0.632779
1354	N	0.901683	0.760706	0.63393
1355	C	0.918135	0.762567	0.339407
1356	N	0.901893	0.760843	0.378333
1357	O	0.856278	0.757161	0.420807
1358	H	0.861213	0.757749	0.602336
1359	C	0.872055	0.756598	0.462245
1360	H	0.876552	0.735712	0.462805
1361	H	0.855546	0.7537	0.490179
1362	H	0.895416	0.779771	0.466994
1363	C	0.754838	0.614942	0.380487
1364	C	0.75416	0.598356	0.33991
1365	C	0.753874	0.614381	0.632769
1366	N	0.754727	0.643963	0.6337
1367	C	0.75326	0.658708	0.339188
1368	N	0.755428	0.644528	0.378185
1369	O	0.759487	0.602879	0.420689
1370	H	0.757309	0.606201	0.602262
1371	C	0.75945	0.618902	0.46215
1372	H	0.779988	0.644464	0.46294
1373	H	0.762539	0.605425	0.490098
1374	H	0.735987	0.618542	0.466677
1375	C	0.901225	0.642938	0.380592
1376	C	0.917557	0.658958	0.339978
1377	C	0.901408	0.642839	0.632779
1378	N	0.87178	0.614163	0.633829
1379	C	0.857214	0.59779	0.339323
1380	N	0.8716	0.613974	0.378316
1381	O	0.913481	0.659623	0.42076
1382	H	0.909342	0.654621	0.602333
1383	C	0.897212	0.643806	0.462218
1384	H	0.871791	0.639199	0.462825
1385	H	0.910798	0.660343	0.490142
1386	H	0.897141	0.620502	0.466947
1387	C	0.991517	0.747395	0.673011
1388	C	0.972352	0.763818	0.672873
1389	C	0.937251	0.74679	0.67236
1390	C	0.920028	0.711931	0.672201
1391	C	0.936972	0.694006	0.00568
1392	C	0.972083	0.711827	0.006349
1393	H	0.983493	0.788983	0.673062
1394	H	0.983017	0.697618	0.006861
1395	H	0.894527	0.69927	0.672198
1396	C	0.527542	0.765262	0.673028
1397	C	0.546975	0.80083	0.006389
1398	C	0.582087	0.818649	0.005856
1399	C	0.599029	0.800721	0.672366
1400	C	0.581807	0.765862	0.672522
1401	C	0.546705	0.748837	0.672822
1402	H	0.536042	0.815039	0.0068
1403	H	0.62453	0.813379	0.672295
1404	H	0.535563	0.723674	0.672853
1405	C	0.76847	0.747259	0.673031
1406	C	0.752049	0.711678	0.672788
1407	C	0.769078	0.693611	0.672431
1408	C	0.803938	0.711239	0.672268
1409	C	0.821871	0.746108	0.005785
1410	C	0.804044	0.763396	0.006455
1411	H	0.726885	0.697655	0.672829
1412	H	0.818251	0.788536	0.006965
1413	H	0.816594	0.698395	0.672201
1414	C	0.750581	0.765391	0.673025
1415	C	0.715008	0.749254	0.006308
1416	C	0.69718	0.766542	0.005775
1417	C	0.715115	0.80141	0.672272
1418	C	0.749972	0.819036	0.672431
1419	C	0.767004	0.800974	0.67291
1420	H	0.700797	0.724111	0.006734
1421	H	0.702459	0.814257	0.672214
1422	H	0.792168	0.814999	0.673065
1423	C	0.76866	0.524428	0.67293
1424	C	0.804246	0.543597	0.672822
1425	C	0.82231	0.578694	0.672417
1426	C	0.804671	0.595912	0.672302
1427	C	0.7698	0.578959	0.005778
1428	C	0.752513	0.543847	0.006244
1429	H	0.818277	0.532464	0.672947
1430	H	0.727371	0.532908	0.006639
1431	H	0.817509	0.621412	0.672285
1432	C	0.750518	0.988408	0.672937
1433	C	0.766672	0.968993	0.006318
1434	C	0.749397	0.933884	0.005835
1435	C	0.714527	0.916923	0.672441
1436	C	0.696884	0.934137	0.672488
1437	C	0.714934	0.969236	0.672775
1438	H	0.791815	0.979932	0.006735
1439	H	0.701699	0.891423	0.672485
1440	H	0.700899	0.980364	0.672853
1441	C	0.64632	0.751675	0.713851
1442	C	0.662128	0.750931	0.67321
1443	C	0.645791	0.750581	0.966082
1444	N	0.61707	0.751454	0.967085
1445	C	0.600918	0.75006	0.672609
1446	N	0.617327	0.752283	0.711573
1447	O	0.663076	0.756359	0.754023
1448	H	0.657377	0.753978	0.935559
1449	C	0.647021	0.756283	0.795511
1450	H	0.641955	0.776793	0.796332
1451	H	0.663609	0.759394	0.823436
1452	H	0.623939	0.732799	0.800045
1453	C	0.764642	0.898062	0.713959
1454	C	0.765049	0.914497	0.673393
1455	C	0.765076	0.898338	0.966244
1456	N	0.764049	0.868677	0.967331
1457	C	0.765747	0.853912	0.672724
1458	N	0.763923	0.868416	0.711617
1459	O	0.760162	0.910249	0.754155
1460	H	0.761267	0.906275	0.935778
1461	C	0.759776	0.893986	0.795586
1462	H	0.738999	0.868543	0.796186
1463	H	0.756803	0.907533	0.823537
1464	H	0.78304	0.893969	0.800268
1465	C	0.61792	0.86956	0.713895
1466	C	0.601506	0.853701	0.673227
1467	C	0.617631	0.869982	0.966157
1468	N	0.647232	0.89868	0.967318
1469	C	0.662007	0.915003	0.672795
1470	N	0.647535	0.898526	0.711627
1471	O	0.605725	0.85288	0.754091
1472	H	0.609563	0.858373	0.935626
1473	C	0.621877	0.868821	0.795552
1474	H	0.647357	0.873599	0.796264
1475	H	0.608323	0.852287	0.82349
1476	H	0.621771	0.892046	0.80015
1477	C	0.872932	0.76151	0.713963
1478	C	0.856931	0.761738	0.673295
1479	C	0.873016	0.761669	0.966109
1480	N	0.901683	0.760706	0.967264
1481	C	0.918135	0.762567	0.672741
1482	N	0.901893	0.760843	0.711667
1483	O	0.856278	0.757161	0.754141
1484	H	0.861213	0.757749	0.93567
1485	C	0.872055	0.756598	0.795579
1486	H	0.876552	0.735712	0.796139
1487	H	0.855546	0.7537	0.823513
1488	H	0.895416	0.779771	0.800328
1489	C	0.754838	0.614942	0.713821
1490	C	0.75416	0.598356	0.673244
1491	C	0.753874	0.614381	0.966103
1492	N	0.754727	0.643963	0.967034
1493	C	0.75326	0.658708	0.672522
1494	N	0.755428	0.644528	0.711515
1495	O	0.759487	0.602879	0.754023
1496	H	0.757309	0.606201	0.935596
1497	C	0.75945	0.618902	0.795484
1498	H	0.779988	0.644464	0.796274
1499	H	0.762539	0.605425	0.823432
1500	H	0.735987	0.618542	0.800011
1501	C	0.901225	0.642938	0.713926
1502	C	0.917557	0.658958	0.673312
1503	C	0.901408	0.642839	0.966113
1504	N	0.87178	0.614163	0.967163
1505	C	0.857214	0.59779	0.672657
1506	N	0.8716	0.613974	0.71165
1507	O	0.913481	0.659623	0.754094
1508	H	0.909342	0.654621	0.935667
1509	C	0.897212	0.643806	0.795552
1510	H	0.871791	0.639199	0.796159
1511	H	0.910798	0.660343	0.823476
1512	H	0.897141	0.620502	0.800278
