data_C360H288N216O144_2018-02-15_10:32:36
#******************************************
#
# CIF file created by Zeo++
# Zeo++ is an open source package to
# analyze microporous materials
#
#*******************************************

_cell_length_a		43.2193   
_cell_length_b		43.2192   
_cell_length_c		30.1308   
_cell_angle_alpha		90   
_cell_angle_beta		90   
_cell_angle_gamma		120   

_symmetry_space_group_name_H-M		'P1'
_symmetry_Int_Tables_number		1
_symmetry_cell_setting		Monoclinic

loop_
_symmetry_equiv_pos_as_xyz
'+x,+y,+z'

loop_
_atom_site_label
_atom_site_type_symbol
_atom_site_fract_x
_atom_site_fract_y
_atom_site_fract_z
1	C	0.127435	0.319156	0.373851
2	N	0.151614	0.354624	0.040222
3	C	0.187349	0.367143	0.040528
4	N	0.198646	0.342972	0.040446
5	C	0.175432	0.30723	0.040751
6	N	0.139963	0.295942	0.040421
7	C	0.212243	0.403676	0.035339
8	C	0.187102	0.28234	0.035786
9	C	0.090902	0.3075	0.03533
10	O	0.161437	0.247344	0.036546
11	O	0.081525	0.333132	0.036123
12	O	0.247252	0.413062	0.036296
13	C	0.366029	0.176534	0.288322
14	N	0.341851	0.141064	0.955187
15	C	0.306109	0.128541	0.955008
16	N	0.294817	0.152716	0.95533
17	C	0.318036	0.188453	0.955147
18	N	0.353504	0.199748	0.95532
19	C	0.28123	0.091985	0.960036
20	C	0.306386	0.213337	0.960351
21	C	0.402577	0.18819	0.960046
22	O	0.332032	0.248342	0.959561
23	O	0.411915	0.162529	0.959246
24	O	0.246228	0.08263	0.959256
25	C	0.259344	0.224933	0.984662
26	N	0.279464	0.261062	0.314252
27	C	0.26868	0.284376	0.326399
28	C	0.234175	0.270758	0.344947
29	N	0.214055	0.234627	0.015363
30	C	0.224844	0.211314	0.003224
31	O	0.20193	0.17563	0.009775
32	O	0.291595	0.320059	0.319842
33	C	0.203728	0.164186	0.054072
34	H	0.184998	0.135562	0.056336
35	H	0.196082	0.177642	0.078757
36	H	0.23044	0.168761	0.06171
37	C	0.289805	0.3315	0.27554
38	H	0.308535	0.360125	0.273275
39	H	0.263094	0.326923	0.267889
40	H	0.297457	0.318042	0.250865
41	N	0.221429	0.292602	0.357389
42	H	0.238074	0.318165	0.354993
43	N	0.272078	0.203089	0.97217
44	H	0.255435	0.177524	0.974539
45	C	0.269671	0.033332	0.984161
46	N	0.233544	0.017309	0.3137
47	C	0.210231	0.4832	0.325809
48	C	0.223846	0.462321	0.344386
49	N	0.259976	0.478341	0.014833
50	C	0.283289	0.012446	0.002713
51	O	0.31897	0.025224	0.009302
52	O	0.174551	0.470422	0.319206
53	C	0.330381	0.038443	0.053615
54	H	0.359007	0.048345	0.055907
55	H	0.316915	0.017323	0.078278
56	H	0.32579	0.060566	0.061262
57	C	0.163151	0.457197	0.274893
58	H	0.134528	0.447295	0.272588
59	H	0.167743	0.435069	0.267262
60	H	0.176624	0.478311	0.250227
61	N	0.201996	0.427738	0.356848
62	H	0.176434	0.418806	0.354419
63	N	0.291515	0.067927	0.971728
64	H	0.317077	0.076858	0.974141
65	C	0.461227	0.235225	0.984317
66	N	0.477237	0.215107	0.313884
67	C	0.011344	0.225897	0.326006
68	C	0.032236	0.260404	0.344548
69	N	0.016221	0.280518	0.014983
70	C	0.482115	0.269727	0.002873
71	O	0.469346	0.29264	0.009449
72	O	0.024118	0.202989	0.31943
73	C	0.456123	0.290839	0.053758
74	H	0.446227	0.309568	0.056042
75	H	0.477233	0.298483	0.078427
76	H	0.433989	0.264124	0.061402
77	C	0.037329	0.204781	0.275116
78	H	0.047229	0.186057	0.272834
79	H	0.059453	0.231493	0.267455
80	H	0.016206	0.197122	0.250457
81	N	0.066831	0.27316	0.356981
82	H	0.075755	0.25652	0.354595
83	N	0.426644	0.222496	0.971861
84	H	0.417722	0.239138	0.97426
85	C	0.127435	0.319156	0.707181
86	N	0.151614	0.354624	0.373555
87	C	0.187349	0.367143	0.373861
88	N	0.198646	0.342972	0.373778
89	C	0.175432	0.30723	0.374083
90	N	0.139963	0.295942	0.373754
91	C	0.212243	0.403676	0.368673
92	C	0.187102	0.28234	0.369118
93	C	0.090902	0.3075	0.368663
94	O	0.161437	0.247344	0.369878
95	O	0.081525	0.333132	0.369456
96	O	0.247252	0.413062	0.369629
97	C	0.366029	0.176534	0.621654
98	N	0.341851	0.141064	0.288523
99	C	0.306109	0.128541	0.288344
100	N	0.294817	0.152716	0.288666
101	C	0.318036	0.188453	0.288481
102	N	0.353504	0.199748	0.288653
103	C	0.28123	0.091985	0.293372
104	C	0.306386	0.213337	0.293687
105	C	0.402577	0.18819	0.293379
106	O	0.332032	0.248342	0.292896
107	O	0.411915	0.162529	0.292578
108	O	0.246228	0.08263	0.29259
109	C	0.259344	0.224933	0.317996
110	N	0.279464	0.261062	0.647584
111	C	0.26868	0.284376	0.659731
112	C	0.234175	0.270758	0.67828
113	N	0.214055	0.234627	0.348697
114	C	0.224844	0.211314	0.336556
115	O	0.20193	0.17563	0.343108
116	O	0.291595	0.320059	0.653177
117	C	0.203728	0.164186	0.387405
118	H	0.184998	0.135562	0.389668
119	H	0.196082	0.177642	0.412091
120	H	0.23044	0.168761	0.395045
121	C	0.289805	0.3315	0.608873
122	H	0.308535	0.360125	0.606609
123	H	0.263094	0.326923	0.601223
124	H	0.297457	0.318042	0.584197
125	N	0.221429	0.292602	0.69072
126	H	0.238074	0.318165	0.688327
127	N	0.272078	0.203089	0.305504
128	H	0.255435	0.177524	0.307874
129	C	0.269671	0.033332	0.317497
130	N	0.233544	0.017309	0.647033
131	C	0.210231	0.4832	0.659141
132	C	0.223846	0.462321	0.67772
133	N	0.259976	0.478341	0.348166
134	C	0.283289	0.012446	0.336045
135	O	0.31897	0.025224	0.342633
136	O	0.174551	0.470422	0.652539
137	C	0.330381	0.038443	0.386947
138	H	0.359007	0.048345	0.38924
139	H	0.316915	0.017323	0.411613
140	H	0.32579	0.060566	0.394594
141	C	0.163151	0.457197	0.608226
142	H	0.134528	0.447295	0.605919
143	H	0.167743	0.435069	0.600596
144	H	0.176624	0.478311	0.58356
145	N	0.201996	0.427738	0.690179
146	H	0.176434	0.418806	0.687752
147	N	0.291515	0.067927	0.305063
148	H	0.317077	0.076858	0.307476
149	C	0.461227	0.235225	0.317651
150	N	0.477237	0.215107	0.647216
151	C	0.011344	0.225897	0.65934
152	C	0.032236	0.260404	0.677879
153	N	0.016221	0.280518	0.348315
154	C	0.482115	0.269727	0.336205
155	O	0.469346	0.29264	0.342783
156	O	0.024118	0.202989	0.652762
157	C	0.456123	0.290839	0.38709
158	H	0.446227	0.309568	0.389376
159	H	0.477233	0.298483	0.411759
160	H	0.433989	0.264124	0.394736
161	C	0.037329	0.204781	0.608448
162	H	0.047229	0.186057	0.606168
163	H	0.059453	0.231493	0.600788
164	H	0.016206	0.197122	0.583789
165	N	0.066831	0.27316	0.690315
166	H	0.075755	0.25652	0.687928
167	N	0.426644	0.222496	0.305195
168	H	0.417722	0.239138	0.307594
169	C	0.127435	0.319156	0.040516
170	N	0.151614	0.354624	0.706886
171	C	0.187349	0.367143	0.707194
172	N	0.198646	0.342972	0.707111
173	C	0.175432	0.30723	0.707417
174	N	0.139963	0.295942	0.707085
175	C	0.212243	0.403676	0.702004
176	C	0.187102	0.28234	0.702452
177	C	0.090902	0.3075	0.701997
178	O	0.161437	0.247344	0.703212
179	O	0.081525	0.333132	0.70279
180	O	0.247252	0.413062	0.702963
181	C	0.366029	0.176534	0.954988
182	N	0.341851	0.141064	0.621856
183	C	0.306109	0.128541	0.621677
184	N	0.294817	0.152716	0.621999
185	C	0.318036	0.188453	0.621813
186	N	0.353504	0.199748	0.621986
187	C	0.28123	0.091985	0.626705
188	C	0.306386	0.213337	0.627021
189	C	0.402577	0.18819	0.626712
190	O	0.332032	0.248342	0.626227
191	O	0.411915	0.162529	0.625912
192	O	0.246228	0.08263	0.625922
193	C	0.259344	0.224933	0.651328
194	N	0.279464	0.261062	0.980918
195	C	0.26868	0.284376	0.993065
196	C	0.234175	0.270758	0.011614
197	N	0.214055	0.234627	0.682027
198	C	0.224844	0.211314	0.66989
199	O	0.20193	0.17563	0.676442
200	O	0.291595	0.320059	0.986507
201	C	0.203728	0.164186	0.720739
202	H	0.184998	0.135562	0.723002
203	H	0.196082	0.177642	0.745421
204	H	0.23044	0.168761	0.728375
205	C	0.289805	0.3315	0.942207
206	H	0.308535	0.360125	0.93994
207	H	0.263094	0.326923	0.934554
208	H	0.297457	0.318042	0.917531
209	N	0.221429	0.292602	0.024055
210	H	0.238074	0.318165	0.02166
211	N	0.272078	0.203089	0.638836
212	H	0.255435	0.177524	0.641209
213	C	0.269671	0.033332	0.65083
214	N	0.233544	0.017309	0.980367
215	C	0.210231	0.4832	0.992474
216	C	0.223846	0.462321	0.011053
217	N	0.259976	0.478341	0.6815
218	C	0.283289	0.012446	0.669379
219	O	0.31897	0.025224	0.675967
220	O	0.174551	0.470422	0.985873
221	C	0.330381	0.038443	0.720281
222	H	0.359007	0.048345	0.722571
223	H	0.316915	0.017323	0.744943
224	H	0.32579	0.060566	0.727927
225	C	0.163151	0.457197	0.94156
226	H	0.134528	0.447295	0.939253
227	H	0.167743	0.435069	0.93393
228	H	0.176624	0.478311	0.916894
229	N	0.201996	0.427738	0.023514
230	H	0.176434	0.418806	0.021087
231	N	0.291515	0.067927	0.638398
232	H	0.317077	0.076858	0.64081
233	C	0.461227	0.235225	0.650983
234	N	0.477237	0.215107	0.98055
235	C	0.011344	0.225897	0.992674
236	C	0.032236	0.260404	0.011214
237	N	0.016221	0.280518	0.681649
238	C	0.482115	0.269727	0.669539
239	O	0.469346	0.29264	0.676117
240	O	0.024118	0.202989	0.986096
241	C	0.456123	0.290839	0.720423
242	H	0.446227	0.309568	0.722707
243	H	0.477233	0.298483	0.745093
244	H	0.433989	0.264124	0.728067
245	C	0.037329	0.204781	0.941782
246	H	0.047229	0.186057	0.939499
247	H	0.059453	0.231493	0.934122
248	H	0.016206	0.197122	0.917123
249	N	0.066831	0.27316	0.023648
250	H	0.075755	0.25652	0.021262
251	N	0.426644	0.222496	0.638527
252	H	0.417722	0.239138	0.640927
253	C	0.127435	0.819157	0.373851
254	N	0.151612	0.854624	0.040222
255	C	0.18735	0.867144	0.040528
256	N	0.198645	0.842972	0.040446
257	C	0.175432	0.80723	0.040751
258	N	0.139963	0.795942	0.040421
259	C	0.212243	0.903677	0.035339
260	C	0.187101	0.78234	0.035786
261	C	0.0909	0.8075	0.03533
262	O	0.161436	0.747343	0.036546
263	O	0.081525	0.833132	0.036123
264	O	0.247251	0.913063	0.036296
265	C	0.366028	0.676535	0.288322
266	N	0.341851	0.641065	0.955187
267	C	0.306108	0.62854	0.955008
268	N	0.294816	0.652716	0.95533
269	C	0.318035	0.688453	0.955147
270	N	0.353504	0.699749	0.95532
271	C	0.28123	0.591985	0.960036
272	C	0.306386	0.713338	0.960354
273	C	0.402577	0.688191	0.960046
274	O	0.332032	0.748343	0.959561
275	O	0.411914	0.662529	0.959246
276	O	0.246228	0.582631	0.959256
277	C	0.259344	0.724933	0.984662
278	N	0.279464	0.761063	0.314252
279	C	0.268679	0.784376	0.326399
280	C	0.234175	0.770758	0.344947
281	N	0.214054	0.734626	0.015363
282	C	0.224844	0.711315	0.003224
283	O	0.20193	0.675632	0.009775
284	O	0.291594	0.82006	0.319842
285	C	0.203728	0.664186	0.054072
286	H	0.184996	0.635561	0.056336
287	H	0.196081	0.677641	0.078757
288	H	0.23044	0.668763	0.061711
289	C	0.289805	0.8315	0.27554
290	H	0.308534	0.860125	0.273275
291	H	0.263094	0.826923	0.267889
292	H	0.297457	0.818043	0.250865
293	N	0.221429	0.792602	0.357389
294	H	0.238074	0.818165	0.354993
295	N	0.272077	0.703089	0.97217
296	H	0.255434	0.677523	0.974539
297	C	0.269671	0.533333	0.984164
298	N	0.233545	0.51731	0.3137
299	C	0.210232	0.983201	0.325808
300	C	0.223846	0.962321	0.344386
301	N	0.259975	0.978341	0.014833
302	C	0.283288	0.512445	0.002714
303	O	0.31897	0.525224	0.009302
304	O	0.17455	0.970422	0.319206
305	C	0.330382	0.538444	0.053615
306	H	0.359006	0.548345	0.055907
307	H	0.316915	0.517324	0.078278
308	H	0.325789	0.560566	0.061262
309	C	0.16315	0.957197	0.274893
310	H	0.134527	0.947295	0.272588
311	H	0.167744	0.93507	0.267262
312	H	0.176623	0.978311	0.250226
313	N	0.201997	0.927738	0.356848
314	H	0.176434	0.918807	0.354419
315	N	0.291513	0.567926	0.971728
316	H	0.317076	0.576858	0.974141
317	C	0.461226	0.735224	0.984317
318	N	0.477237	0.715106	0.313884
319	C	0.011343	0.725897	0.326006
320	C	0.032235	0.760405	0.344548
321	N	0.016219	0.780518	0.014983
322	C	0.482114	0.769727	0.002873
323	O	0.469346	0.79264	0.009449
324	O	0.024117	0.70299	0.31943
325	C	0.456122	0.790839	0.053758
326	H	0.446228	0.809568	0.056042
327	H	0.477233	0.798483	0.078427
328	H	0.433988	0.764124	0.061402
329	C	0.037329	0.70478	0.275116
330	H	0.047229	0.686057	0.272834
331	H	0.059453	0.731495	0.267455
332	H	0.016207	0.697123	0.250457
333	N	0.066831	0.77316	0.356981
334	H	0.075756	0.756521	0.354595
335	N	0.426643	0.722496	0.971861
336	H	0.417723	0.739138	0.97426
337	C	0.127435	0.819157	0.707181
338	N	0.151612	0.854624	0.373555
339	C	0.18735	0.867144	0.373861
340	N	0.198645	0.842972	0.373778
341	C	0.175432	0.80723	0.374083
342	N	0.139963	0.795942	0.373754
343	C	0.212243	0.903677	0.368673
344	C	0.187101	0.78234	0.369118
345	C	0.0909	0.8075	0.368663
346	O	0.161436	0.747343	0.369878
347	O	0.081525	0.833132	0.369456
348	O	0.247251	0.913063	0.369629
349	C	0.366028	0.676535	0.621654
350	N	0.341851	0.641065	0.288523
351	C	0.306108	0.62854	0.288344
352	N	0.294816	0.652716	0.288666
353	C	0.318035	0.688453	0.288481
354	N	0.353504	0.699749	0.288653
355	C	0.28123	0.591985	0.293372
356	C	0.306386	0.713338	0.293687
357	C	0.402577	0.688191	0.293379
358	O	0.332032	0.748343	0.292896
359	O	0.411914	0.662529	0.292579
360	O	0.246228	0.582631	0.29259
361	C	0.259344	0.724933	0.317996
362	N	0.279464	0.761063	0.647584
363	C	0.268679	0.784376	0.659731
364	C	0.234175	0.770758	0.67828
365	N	0.214054	0.734626	0.348697
366	C	0.224844	0.711315	0.336556
367	O	0.20193	0.675632	0.343108
368	O	0.291594	0.82006	0.653177
369	C	0.203728	0.664186	0.387405
370	H	0.184996	0.635561	0.389668
371	H	0.196081	0.677641	0.412091
372	H	0.23044	0.668763	0.395045
373	C	0.289805	0.8315	0.608873
374	H	0.308534	0.860125	0.606609
375	H	0.263094	0.826923	0.601223
376	H	0.297457	0.818043	0.584197
377	N	0.221429	0.792602	0.69072
378	H	0.238074	0.818165	0.688327
379	N	0.272077	0.703089	0.305504
380	H	0.255434	0.677523	0.307875
381	C	0.269671	0.533333	0.317497
382	N	0.233545	0.51731	0.647033
383	C	0.210232	0.983201	0.659141
384	C	0.223846	0.962321	0.67772
385	N	0.259975	0.978341	0.348166
386	C	0.283288	0.512445	0.336045
387	O	0.31897	0.525224	0.342633
388	O	0.17455	0.970422	0.652539
389	C	0.330382	0.538444	0.386947
390	H	0.359006	0.548345	0.38924
391	H	0.316915	0.517324	0.411613
392	H	0.325789	0.560566	0.394594
393	C	0.16315	0.957197	0.608226
394	H	0.134527	0.947295	0.605919
395	H	0.167744	0.93507	0.600596
396	H	0.176623	0.978311	0.58356
397	N	0.201997	0.927738	0.690179
398	H	0.176434	0.918807	0.687752
399	N	0.291513	0.567926	0.305063
400	H	0.317076	0.576858	0.307476
401	C	0.461226	0.735224	0.317651
402	N	0.477237	0.715106	0.647216
403	C	0.011343	0.725897	0.65934
404	C	0.032235	0.760405	0.677879
405	N	0.016219	0.780518	0.348315
406	C	0.482114	0.769727	0.336205
407	O	0.469346	0.79264	0.342783
408	O	0.024117	0.70299	0.652762
409	C	0.456122	0.790839	0.38709
410	H	0.446228	0.809568	0.389376
411	H	0.477233	0.798483	0.411759
412	H	0.433988	0.764124	0.394736
413	C	0.037329	0.70478	0.608448
414	H	0.047229	0.686057	0.606168
415	H	0.059453	0.731495	0.600788
416	H	0.016207	0.697123	0.583789
417	N	0.066831	0.77316	0.690315
418	H	0.075756	0.756521	0.687928
419	N	0.426643	0.722496	0.305195
420	H	0.417723	0.739138	0.307594
421	C	0.127435	0.819157	0.040516
422	N	0.151612	0.854624	0.706886
423	C	0.18735	0.867144	0.707194
424	N	0.198645	0.842972	0.707111
425	C	0.175432	0.80723	0.707417
426	N	0.139963	0.795942	0.707085
427	C	0.212243	0.903677	0.702004
428	C	0.187101	0.78234	0.702452
429	C	0.0909	0.8075	0.701997
430	O	0.161436	0.747343	0.703212
431	O	0.081525	0.833132	0.70279
432	O	0.247251	0.913063	0.702963
433	C	0.366028	0.676535	0.954988
434	N	0.341851	0.641065	0.621856
435	C	0.306108	0.62854	0.621677
436	N	0.294816	0.652716	0.621999
437	C	0.318035	0.688453	0.621813
438	N	0.353504	0.699749	0.621986
439	C	0.28123	0.591985	0.626705
440	C	0.306386	0.713338	0.627021
441	C	0.402577	0.688191	0.626712
442	O	0.332032	0.748343	0.626227
443	O	0.411914	0.662529	0.625912
444	O	0.246228	0.582631	0.625922
445	C	0.259344	0.724933	0.651328
446	N	0.279464	0.761063	0.980918
447	C	0.268679	0.784376	0.993065
448	C	0.234175	0.770758	0.011614
449	N	0.214054	0.734626	0.682027
450	C	0.224844	0.711315	0.66989
451	O	0.20193	0.675632	0.676442
452	O	0.291594	0.82006	0.986507
453	C	0.203728	0.664186	0.720739
454	H	0.184996	0.635561	0.723002
455	H	0.196081	0.677641	0.745421
456	H	0.23044	0.668763	0.728375
457	C	0.289805	0.8315	0.942207
458	H	0.308534	0.860125	0.93994
459	H	0.263094	0.826923	0.934554
460	H	0.297457	0.818043	0.917531
461	N	0.221429	0.792602	0.024055
462	H	0.238074	0.818165	0.021661
463	N	0.272077	0.703089	0.638836
464	H	0.255434	0.677523	0.641209
465	C	0.269671	0.533333	0.65083
466	N	0.233545	0.51731	0.980367
467	C	0.210232	0.983201	0.992474
468	C	0.223846	0.962321	0.011053
469	N	0.259975	0.978341	0.6815
470	C	0.283288	0.512445	0.669379
471	O	0.31897	0.525224	0.675967
472	O	0.17455	0.970422	0.985873
473	C	0.330382	0.538444	0.720281
474	H	0.359006	0.548345	0.722571
475	H	0.316915	0.517324	0.744943
476	H	0.325789	0.560566	0.727927
477	C	0.16315	0.957197	0.94156
478	H	0.134527	0.947295	0.939253
479	H	0.167744	0.93507	0.93393
480	H	0.176623	0.978311	0.916894
481	N	0.201997	0.927738	0.023514
482	H	0.176434	0.918807	0.021087
483	N	0.291513	0.567926	0.638398
484	H	0.317076	0.576858	0.64081
485	C	0.461226	0.735224	0.650983
486	N	0.477237	0.715106	0.98055
487	C	0.011343	0.725897	0.992674
488	C	0.032235	0.760405	0.011214
489	N	0.016219	0.780518	0.681649
490	C	0.482114	0.769727	0.669539
491	O	0.469346	0.79264	0.676117
492	O	0.024117	0.70299	0.986096
493	C	0.456122	0.790839	0.720423
494	H	0.446228	0.809568	0.722707
495	H	0.477233	0.798483	0.745093
496	H	0.433988	0.764124	0.728067
497	C	0.037329	0.70478	0.941782
498	H	0.047229	0.686057	0.939499
499	H	0.059453	0.731495	0.934122
500	H	0.016207	0.697123	0.917123
501	N	0.066831	0.77316	0.023648
502	H	0.075756	0.756521	0.021262
503	N	0.426643	0.722496	0.638527
504	H	0.417723	0.739138	0.640927
505	C	0.627436	0.319156	0.373851
506	N	0.651613	0.354624	0.040222
507	C	0.687348	0.367143	0.040528
508	N	0.698646	0.342972	0.040446
509	C	0.675432	0.30723	0.040751
510	N	0.639961	0.295942	0.040421
511	C	0.712242	0.403676	0.035339
512	C	0.687102	0.28234	0.035786
513	C	0.590901	0.3075	0.03533
514	O	0.661436	0.247344	0.036546
515	O	0.581526	0.333132	0.036123
516	O	0.747252	0.413062	0.036296
517	C	0.866028	0.176534	0.288322
518	N	0.841852	0.141064	0.955187
519	C	0.80611	0.128541	0.955008
520	N	0.794817	0.152716	0.95533
521	C	0.818035	0.188453	0.955147
522	N	0.853503	0.199748	0.95532
523	C	0.781231	0.091985	0.960036
524	C	0.806386	0.213337	0.960351
525	C	0.902576	0.18819	0.960046
526	O	0.832033	0.248342	0.959561
527	O	0.911914	0.162529	0.959246
528	O	0.746227	0.08263	0.959256
529	C	0.759344	0.224933	0.984662
530	N	0.779463	0.261062	0.314252
531	C	0.768679	0.284376	0.326399
532	C	0.734176	0.270758	0.344947
533	N	0.714056	0.234627	0.015363
534	C	0.724843	0.211314	0.003224
535	O	0.70193	0.17563	0.009775
536	O	0.791594	0.320059	0.319842
537	C	0.703727	0.164186	0.054072
538	H	0.684998	0.135562	0.056336
539	H	0.696082	0.177642	0.078757
540	H	0.730439	0.168761	0.06171
541	C	0.789804	0.3315	0.27554
542	H	0.808533	0.360125	0.273275
543	H	0.763094	0.326923	0.267889
544	H	0.797458	0.318042	0.250865
545	N	0.721428	0.292602	0.357389
546	H	0.738074	0.318165	0.354993
547	N	0.772078	0.203089	0.97217
548	H	0.755434	0.177524	0.974539
549	C	0.769672	0.033332	0.984161
550	N	0.733544	0.017309	0.3137
551	C	0.710231	0.4832	0.325809
552	C	0.723847	0.462321	0.344386
553	N	0.759976	0.478341	0.014833
554	C	0.783288	0.012446	0.002713
555	O	0.818969	0.025224	0.009302
556	O	0.674551	0.470422	0.319206
557	C	0.830382	0.038443	0.053615
558	H	0.859005	0.048345	0.055907
559	H	0.816914	0.017323	0.078278
560	H	0.825789	0.060566	0.061262
561	C	0.663151	0.457197	0.274893
562	H	0.634528	0.447295	0.272588
563	H	0.667743	0.435069	0.267262
564	H	0.676624	0.478311	0.250227
565	N	0.701995	0.427738	0.356848
566	H	0.676433	0.418806	0.354419
567	N	0.791514	0.067927	0.971728
568	H	0.817076	0.076858	0.974141
569	C	0.961226	0.235225	0.984317
570	N	0.977239	0.215107	0.313884
571	C	0.511344	0.225897	0.326006
572	C	0.532235	0.260404	0.344548
573	N	0.51622	0.280518	0.014983
574	C	0.982114	0.269727	0.002873
575	O	0.969345	0.29264	0.009449
576	O	0.524118	0.202989	0.31943
577	C	0.956122	0.290839	0.053758
578	H	0.946228	0.309568	0.056042
579	H	0.977234	0.298483	0.078427
580	H	0.933988	0.264124	0.061402
581	C	0.537328	0.204781	0.275116
582	H	0.547228	0.186057	0.272834
583	H	0.559453	0.231493	0.267455
584	H	0.516205	0.197122	0.250457
585	N	0.56683	0.27316	0.356981
586	H	0.575754	0.25652	0.354595
587	N	0.926643	0.222496	0.971861
588	H	0.917724	0.239138	0.97426
589	C	0.627436	0.319156	0.707181
590	N	0.651613	0.354624	0.373555
591	C	0.687348	0.367143	0.373861
592	N	0.698646	0.342972	0.373778
593	C	0.675432	0.30723	0.374083
594	N	0.639961	0.295942	0.373754
595	C	0.712242	0.403676	0.368673
596	C	0.687102	0.28234	0.369118
597	C	0.590901	0.3075	0.368663
598	O	0.661436	0.247344	0.369878
599	O	0.581526	0.333132	0.369456
600	O	0.747252	0.413062	0.369629
601	C	0.866028	0.176534	0.621654
602	N	0.841852	0.141064	0.288523
603	C	0.80611	0.128541	0.288344
604	N	0.794817	0.152716	0.288666
605	C	0.818035	0.188453	0.288481
606	N	0.853503	0.199748	0.288653
607	C	0.781231	0.091985	0.293372
608	C	0.806386	0.213337	0.293687
609	C	0.902576	0.18819	0.293379
610	O	0.832033	0.248342	0.292896
611	O	0.911914	0.162529	0.292578
612	O	0.746227	0.08263	0.29259
613	C	0.759344	0.224933	0.317996
614	N	0.779463	0.261062	0.647584
615	C	0.768679	0.284376	0.659731
616	C	0.734176	0.270758	0.67828
617	N	0.714056	0.234627	0.348697
618	C	0.724843	0.211314	0.336556
619	O	0.70193	0.17563	0.343108
620	O	0.791594	0.320059	0.653177
621	C	0.703727	0.164186	0.387405
622	H	0.684998	0.135562	0.389668
623	H	0.696082	0.177642	0.412091
624	H	0.730439	0.168761	0.395045
625	C	0.789804	0.3315	0.608873
626	H	0.808533	0.360125	0.606609
627	H	0.763094	0.326923	0.601223
628	H	0.797458	0.318042	0.584197
629	N	0.721428	0.292602	0.69072
630	H	0.738074	0.318165	0.688327
631	N	0.772078	0.203089	0.305504
632	H	0.755434	0.177524	0.307874
633	C	0.769672	0.033332	0.317497
634	N	0.733544	0.017309	0.647033
635	C	0.710231	0.4832	0.659141
636	C	0.723847	0.462321	0.67772
637	N	0.759976	0.478341	0.348166
638	C	0.783288	0.012446	0.336045
639	O	0.818969	0.025224	0.342633
640	O	0.674551	0.470422	0.652539
641	C	0.830382	0.038443	0.386947
642	H	0.859005	0.048345	0.38924
643	H	0.816914	0.017323	0.411613
644	H	0.825789	0.060566	0.394594
645	C	0.663151	0.457197	0.608226
646	H	0.634528	0.447295	0.605919
647	H	0.667743	0.435069	0.600596
648	H	0.676624	0.478311	0.58356
649	N	0.701995	0.427738	0.690179
650	H	0.676433	0.418806	0.687752
651	N	0.791514	0.067927	0.305063
652	H	0.817076	0.076858	0.307476
653	C	0.961226	0.235225	0.317651
654	N	0.977239	0.215107	0.647216
655	C	0.511344	0.225897	0.65934
656	C	0.532235	0.260404	0.677879
657	N	0.51622	0.280518	0.348315
658	C	0.982114	0.269727	0.336205
659	O	0.969345	0.29264	0.342783
660	O	0.524118	0.202989	0.652762
661	C	0.956122	0.290839	0.38709
662	H	0.946228	0.309568	0.389376
663	H	0.977234	0.298483	0.411759
664	H	0.933988	0.264124	0.394736
665	C	0.537328	0.204781	0.608448
666	H	0.547228	0.186057	0.606168
667	H	0.559453	0.231493	0.600788
668	H	0.516205	0.197122	0.583789
669	N	0.56683	0.27316	0.690315
670	H	0.575754	0.25652	0.687928
671	N	0.926643	0.222496	0.305195
672	H	0.917724	0.239138	0.307594
673	C	0.627436	0.319156	0.040516
674	N	0.651613	0.354624	0.706886
675	C	0.687348	0.367143	0.707194
676	N	0.698646	0.342972	0.707111
677	C	0.675432	0.30723	0.707417
678	N	0.639961	0.295942	0.707085
679	C	0.712242	0.403676	0.702004
680	C	0.687102	0.28234	0.702452
681	C	0.590901	0.3075	0.701997
682	O	0.661436	0.247344	0.703212
683	O	0.581526	0.333132	0.70279
684	O	0.747252	0.413062	0.702963
685	C	0.866028	0.176534	0.954988
686	N	0.841852	0.141064	0.621856
687	C	0.80611	0.128541	0.621677
688	N	0.794817	0.152716	0.621999
689	C	0.818035	0.188453	0.621813
690	N	0.853503	0.199748	0.621986
691	C	0.781231	0.091985	0.626705
692	C	0.806386	0.213337	0.627021
693	C	0.902576	0.18819	0.626712
694	O	0.832033	0.248342	0.626227
695	O	0.911914	0.162529	0.625912
696	O	0.746227	0.08263	0.625922
697	C	0.759344	0.224933	0.651328
698	N	0.779463	0.261062	0.980918
699	C	0.768679	0.284376	0.993065
700	C	0.734176	0.270758	0.011614
701	N	0.714056	0.234627	0.682027
702	C	0.724843	0.211314	0.66989
703	O	0.70193	0.17563	0.676442
704	O	0.791594	0.320059	0.986507
705	C	0.703727	0.164186	0.720739
706	H	0.684998	0.135562	0.723002
707	H	0.696082	0.177642	0.745421
708	H	0.730439	0.168761	0.728375
709	C	0.789804	0.3315	0.942207
710	H	0.808533	0.360125	0.93994
711	H	0.763094	0.326923	0.934554
712	H	0.797458	0.318042	0.917531
713	N	0.721428	0.292602	0.024055
714	H	0.738074	0.318165	0.02166
715	N	0.772078	0.203089	0.638836
716	H	0.755434	0.177524	0.641209
717	C	0.769672	0.033332	0.65083
718	N	0.733544	0.017309	0.980367
719	C	0.710231	0.4832	0.992474
720	C	0.723847	0.462321	0.011053
721	N	0.759976	0.478341	0.6815
722	C	0.783288	0.012446	0.669379
723	O	0.818969	0.025224	0.675967
724	O	0.674551	0.470422	0.985873
725	C	0.830382	0.038443	0.720281
726	H	0.859005	0.048345	0.722571
727	H	0.816914	0.017323	0.744943
728	H	0.825789	0.060566	0.727927
729	C	0.663151	0.457197	0.94156
730	H	0.634528	0.447295	0.939253
731	H	0.667743	0.435069	0.93393
732	H	0.676624	0.478311	0.916894
733	N	0.701995	0.427738	0.023514
734	H	0.676433	0.418806	0.021087
735	N	0.791514	0.067927	0.638398
736	H	0.817076	0.076858	0.64081
737	C	0.961226	0.235225	0.650983
738	N	0.977239	0.215107	0.98055
739	C	0.511344	0.225897	0.992674
740	C	0.532235	0.260404	0.011214
741	N	0.51622	0.280518	0.681649
742	C	0.982114	0.269727	0.669539
743	O	0.969345	0.29264	0.676117
744	O	0.524118	0.202989	0.986096
745	C	0.956122	0.290839	0.720423
746	H	0.946228	0.309568	0.722707
747	H	0.977234	0.298483	0.745093
748	H	0.933988	0.264124	0.728067
749	C	0.537328	0.204781	0.941782
750	H	0.547228	0.186057	0.939499
751	H	0.559453	0.231493	0.934122
752	H	0.516205	0.197122	0.917123
753	N	0.56683	0.27316	0.023648
754	H	0.575754	0.25652	0.021262
755	N	0.926643	0.222496	0.638527
756	H	0.917724	0.239138	0.640927
757	C	0.627435	0.819157	0.373851
758	N	0.651613	0.854624	0.040222
759	C	0.687349	0.867144	0.040528
760	N	0.698644	0.842972	0.040446
761	C	0.675432	0.80723	0.040751
762	N	0.639962	0.795942	0.040421
763	C	0.712242	0.903677	0.035339
764	C	0.687102	0.78234	0.035786
765	C	0.590901	0.8075	0.03533
766	O	0.661436	0.747343	0.036546
767	O	0.581525	0.833132	0.036123
768	O	0.747252	0.913063	0.036296
769	C	0.866028	0.676535	0.288322
770	N	0.84185	0.641065	0.955187
771	C	0.806107	0.62854	0.955008
772	N	0.794817	0.652716	0.95533
773	C	0.818035	0.688453	0.955147
774	N	0.853503	0.699749	0.95532
775	C	0.781231	0.591985	0.960036
776	C	0.806386	0.713338	0.960354
777	C	0.902577	0.688191	0.960046
778	O	0.832031	0.748343	0.959561
779	O	0.911914	0.662529	0.959246
780	O	0.746228	0.582631	0.959256
781	C	0.759344	0.724933	0.984662
782	N	0.779463	0.761063	0.314252
783	C	0.768679	0.784376	0.326399
784	C	0.734174	0.770758	0.344947
785	N	0.714053	0.734626	0.015363
786	C	0.724844	0.711315	0.003224
787	O	0.70193	0.675632	0.009775
788	O	0.791595	0.82006	0.319842
789	C	0.703727	0.664186	0.054072
790	H	0.684995	0.635561	0.056336
791	H	0.696081	0.677641	0.078757
792	H	0.73044	0.668763	0.061711
793	C	0.789804	0.8315	0.27554
794	H	0.808534	0.860125	0.273275
795	H	0.763094	0.826923	0.267889
796	H	0.797458	0.818043	0.250865
797	N	0.721428	0.792602	0.357389
798	H	0.738074	0.818165	0.354993
799	N	0.772078	0.703089	0.97217
800	H	0.755433	0.677523	0.974539
801	C	0.76967	0.533333	0.984164
802	N	0.733544	0.51731	0.3137
803	C	0.71023	0.983201	0.325808
804	C	0.723845	0.962321	0.344386
805	N	0.759974	0.978341	0.014833
806	C	0.783287	0.512445	0.002714
807	O	0.818969	0.525224	0.009302
808	O	0.674551	0.970422	0.319206
809	C	0.830383	0.538444	0.053615
810	H	0.859006	0.548345	0.055907
811	H	0.816914	0.517324	0.078278
812	H	0.825788	0.560566	0.061262
813	C	0.66315	0.957197	0.274893
814	H	0.634527	0.947295	0.272588
815	H	0.667743	0.93507	0.267262
816	H	0.676623	0.978311	0.250226
817	N	0.701995	0.927738	0.356848
818	H	0.676433	0.918807	0.354419
819	N	0.791513	0.567926	0.971728
820	H	0.817076	0.576858	0.974141
821	C	0.961226	0.735224	0.984317
822	N	0.977236	0.715106	0.313884
823	C	0.511343	0.725897	0.326006
824	C	0.532236	0.760405	0.344548
825	N	0.51622	0.780518	0.014983
826	C	0.982114	0.769727	0.002873
827	O	0.969345	0.79264	0.009449
828	O	0.524118	0.70299	0.31943
829	C	0.956122	0.790839	0.053758
830	H	0.946229	0.809568	0.056042
831	H	0.977232	0.798483	0.078427
832	H	0.933988	0.764124	0.061402
833	C	0.537328	0.70478	0.275116
834	H	0.547228	0.686057	0.272834
835	H	0.559453	0.731495	0.267455
836	H	0.516206	0.697123	0.250457
837	N	0.56683	0.77316	0.356981
838	H	0.575755	0.756521	0.354595
839	N	0.926643	0.722496	0.971861
840	H	0.917722	0.739138	0.97426
841	C	0.627435	0.819157	0.707181
842	N	0.651613	0.854624	0.373555
843	C	0.687349	0.867144	0.373861
844	N	0.698644	0.842972	0.373778
845	C	0.675432	0.80723	0.374083
846	N	0.639962	0.795942	0.373754
847	C	0.712242	0.903677	0.368673
848	C	0.687102	0.78234	0.369118
849	C	0.590901	0.8075	0.368663
850	O	0.661436	0.747343	0.369878
851	O	0.581525	0.833132	0.369456
852	O	0.747252	0.913063	0.369629
853	C	0.866028	0.676535	0.621654
854	N	0.84185	0.641065	0.288523
855	C	0.806107	0.62854	0.288344
856	N	0.794817	0.652716	0.288666
857	C	0.818035	0.688453	0.288481
858	N	0.853503	0.699749	0.288653
859	C	0.781231	0.591985	0.293372
860	C	0.806386	0.713338	0.293687
861	C	0.902577	0.688191	0.293379
862	O	0.832031	0.748343	0.292896
863	O	0.911914	0.662529	0.292579
864	O	0.746228	0.582631	0.29259
865	C	0.759344	0.724933	0.317996
866	N	0.779463	0.761063	0.647584
867	C	0.768679	0.784376	0.659731
868	C	0.734174	0.770758	0.67828
869	N	0.714053	0.734626	0.348697
870	C	0.724844	0.711315	0.336556
871	O	0.70193	0.675632	0.343108
872	O	0.791595	0.82006	0.653177
873	C	0.703727	0.664186	0.387405
874	H	0.684995	0.635561	0.389668
875	H	0.696081	0.677641	0.412091
876	H	0.73044	0.668763	0.395045
877	C	0.789804	0.8315	0.608873
878	H	0.808534	0.860125	0.606609
879	H	0.763094	0.826923	0.601223
880	H	0.797458	0.818043	0.584197
881	N	0.721428	0.792602	0.69072
882	H	0.738074	0.818165	0.688327
883	N	0.772078	0.703089	0.305504
884	H	0.755433	0.677523	0.307875
885	C	0.76967	0.533333	0.317497
886	N	0.733544	0.51731	0.647033
887	C	0.71023	0.983201	0.659141
888	C	0.723845	0.962321	0.67772
889	N	0.759974	0.978341	0.348166
890	C	0.783287	0.512445	0.336045
891	O	0.818969	0.525224	0.342633
892	O	0.674551	0.970422	0.652539
893	C	0.830383	0.538444	0.386947
894	H	0.859006	0.548345	0.38924
895	H	0.816914	0.517324	0.411613
896	H	0.825788	0.560566	0.394594
897	C	0.66315	0.957197	0.608226
898	H	0.634527	0.947295	0.605919
899	H	0.667743	0.93507	0.600596
900	H	0.676623	0.978311	0.58356
901	N	0.701995	0.927738	0.690179
902	H	0.676433	0.918807	0.687752
903	N	0.791513	0.567926	0.305063
904	H	0.817076	0.576858	0.307476
905	C	0.961226	0.735224	0.317651
906	N	0.977236	0.715106	0.647216
907	C	0.511343	0.725897	0.65934
908	C	0.532236	0.760405	0.677879
909	N	0.51622	0.780518	0.348315
910	C	0.982114	0.769727	0.336205
911	O	0.969345	0.79264	0.342783
912	O	0.524118	0.70299	0.652762
913	C	0.956122	0.790839	0.38709
914	H	0.946229	0.809568	0.389376
915	H	0.977232	0.798483	0.411759
916	H	0.933988	0.764124	0.394736
917	C	0.537328	0.70478	0.608448
918	H	0.547228	0.686057	0.606168
919	H	0.559453	0.731495	0.600788
920	H	0.516206	0.697123	0.583789
921	N	0.56683	0.77316	0.690315
922	H	0.575755	0.756521	0.687928
923	N	0.926643	0.722496	0.305195
924	H	0.917722	0.739138	0.307594
925	C	0.627435	0.819157	0.040516
926	N	0.651613	0.854624	0.706886
927	C	0.687349	0.867144	0.707194
928	N	0.698644	0.842972	0.707111
929	C	0.675432	0.80723	0.707417
930	N	0.639962	0.795942	0.707085
931	C	0.712242	0.903677	0.702004
932	C	0.687102	0.78234	0.702452
933	C	0.590901	0.8075	0.701997
934	O	0.661436	0.747343	0.703212
935	O	0.581525	0.833132	0.70279
936	O	0.747252	0.913063	0.702963
937	C	0.866028	0.676535	0.954988
938	N	0.84185	0.641065	0.621856
939	C	0.806107	0.62854	0.621677
940	N	0.794817	0.652716	0.621999
941	C	0.818035	0.688453	0.621813
942	N	0.853503	0.699749	0.621986
943	C	0.781231	0.591985	0.626705
944	C	0.806386	0.713338	0.627021
945	C	0.902577	0.688191	0.626712
946	O	0.832031	0.748343	0.626227
947	O	0.911914	0.662529	0.625912
948	O	0.746228	0.582631	0.625922
949	C	0.759344	0.724933	0.651328
950	N	0.779463	0.761063	0.980918
951	C	0.768679	0.784376	0.993065
952	C	0.734174	0.770758	0.011614
953	N	0.714053	0.734626	0.682027
954	C	0.724844	0.711315	0.66989
955	O	0.70193	0.675632	0.676442
956	O	0.791595	0.82006	0.986507
957	C	0.703727	0.664186	0.720739
958	H	0.684995	0.635561	0.723002
959	H	0.696081	0.677641	0.745421
960	H	0.73044	0.668763	0.728375
961	C	0.789804	0.8315	0.942207
962	H	0.808534	0.860125	0.93994
963	H	0.763094	0.826923	0.934554
964	H	0.797458	0.818043	0.917531
965	N	0.721428	0.792602	0.024055
966	H	0.738074	0.818165	0.021661
967	N	0.772078	0.703089	0.638836
968	H	0.755433	0.677523	0.641209
969	C	0.76967	0.533333	0.65083
970	N	0.733544	0.51731	0.980367
971	C	0.71023	0.983201	0.992474
972	C	0.723845	0.962321	0.011053
973	N	0.759974	0.978341	0.6815
974	C	0.783287	0.512445	0.669379
975	O	0.818969	0.525224	0.675967
976	O	0.674551	0.970422	0.985873
977	C	0.830383	0.538444	0.720281
978	H	0.859006	0.548345	0.722571
979	H	0.816914	0.517324	0.744943
980	H	0.825788	0.560566	0.727927
981	C	0.66315	0.957197	0.94156
982	H	0.634527	0.947295	0.939253
983	H	0.667743	0.93507	0.93393
984	H	0.676623	0.978311	0.916894
985	N	0.701995	0.927738	0.023514
986	H	0.676433	0.918807	0.021087
987	N	0.791513	0.567926	0.638398
988	H	0.817076	0.576858	0.64081
989	C	0.961226	0.735224	0.650983
990	N	0.977236	0.715106	0.98055
991	C	0.511343	0.725897	0.992674
992	C	0.532236	0.760405	0.011214
993	N	0.51622	0.780518	0.681649
994	C	0.982114	0.769727	0.669539
995	O	0.969345	0.79264	0.676117
996	O	0.524118	0.70299	0.986096
997	C	0.956122	0.790839	0.720423
998	H	0.946229	0.809568	0.722707
999	H	0.977232	0.798483	0.745093
1000	H	0.933988	0.764124	0.728067
1001	C	0.537328	0.70478	0.941782
1002	H	0.547228	0.686057	0.939499
1003	H	0.559453	0.731495	0.934122
1004	H	0.516206	0.697123	0.917123
1005	N	0.56683	0.77316	0.023648
1006	H	0.575755	0.756521	0.021262
1007	N	0.926643	0.722496	0.638527
1008	H	0.917722	0.739138	0.640927
