data_C576H288N144_2018-02-15_10:38:33
#******************************************
#
# CIF file created by Zeo++
# Zeo++ is an open source package to
# analyze microporous materials
#
#*******************************************

_cell_length_a		44.6667   
_cell_length_b		44.6713   
_cell_length_c		29.505   
_cell_angle_alpha		90   
_cell_angle_beta		90   
_cell_angle_gamma		120.01   

_symmetry_space_group_name_H-M		'P1'
_symmetry_Int_Tables_number		1
_symmetry_cell_setting		Monoclinic

loop_
_symmetry_equiv_pos_as_xyz
'+x,+y,+z'

loop_
_atom_site_label
_atom_site_type_symbol
_atom_site_fract_x
_atom_site_fract_y
_atom_site_fract_z
1	C	0.10037	0.052302	0.049361
2	C	0.136833	0.070533	0.049435
3	H	0.087488	0.045857	0.079675
4	H	0.149646	0.076937	0.079799
5	C	0.10037	0.552302	0.049361
6	C	0.136832	0.570533	0.049435
7	H	0.087488	0.545858	0.079675
8	H	0.149645	0.576936	0.079799
9	C	0.244887	0.15107	0.008541
10	N	0.209717	0.133404	0.008392
11	N	0.2097	0.080537	0.00844
12	C	0.24487	0.098033	0.008576
13	N	0.261811	0.133016	0.008622
14	C	0.313273	0.082089	0.049704
15	C	0.28168	0.081987	0.049803
16	C	0.265856	0.08271	0.008653
17	C	0.329739	0.08272	0.008484
18	H	0.2728	0.085895	0.079981
19	H	0.3261	0.085901	0.079836
20	C	0.281641	0.203877	0.049758
21	C	0.313169	0.235446	0.049812
22	C	0.329716	0.251223	0.008631
23	C	0.265885	0.187383	0.008537
24	H	0.326038	0.244323	0.079937
25	H	0.272733	0.191038	0.0799
26	C	0.244887	0.65107	0.008541
27	N	0.209716	0.633403	0.008392
28	N	0.2097	0.580537	0.00844
29	C	0.24487	0.598033	0.008576
30	N	0.261811	0.633016	0.008622
31	C	0.313272	0.582088	0.049704
32	C	0.281679	0.581987	0.049803
33	C	0.265855	0.582709	0.008653
34	C	0.329738	0.582719	0.008484
35	H	0.272802	0.585896	0.079981
36	H	0.326099	0.585901	0.079836
37	C	0.28164	0.703877	0.049758
38	C	0.313168	0.735447	0.049812
39	C	0.329716	0.751224	0.008631
40	C	0.265885	0.687384	0.008537
41	H	0.326039	0.744324	0.079937
42	H	0.272733	0.691039	0.0799
43	N	0.027495	0.042122	0.008066
44	C	0.045313	0.024774	0.008053
45	N	0.02749	0.489605	0.008056
46	C	0.136929	0.07059	0.300351
47	C	0.100466	0.052356	0.30028
48	C	0.081803	0.043021	0.341451
49	H	0.087652	0.045951	0.269915
50	H	0.149814	0.077034	0.270039
51	N	0.027495	0.042122	0.3414
52	C	0.045313	0.024774	0.341386
53	N	0.02749	0.489605	0.34139
54	C	0.136929	0.07059	0.633686
55	C	0.100466	0.052356	0.633615
56	C	0.081803	0.043021	0.674784
57	C	0.10037	0.052302	0.382694
58	C	0.136833	0.070533	0.382769
59	H	0.087488	0.045857	0.413008
60	H	0.087652	0.045951	0.60325
61	H	0.149814	0.077034	0.603372
62	H	0.149646	0.076937	0.413133
63	N	0.027495	0.042122	0.674733
64	C	0.045313	0.024774	0.674719
65	N	0.02749	0.489605	0.674723
66	C	0.136929	0.07059	0.967019
67	C	0.100466	0.052356	0.966948
68	C	0.081803	0.043021	0.008117
69	C	0.10037	0.052302	0.716028
70	C	0.136833	0.070533	0.716102
71	H	0.087488	0.045857	0.746341
72	H	0.087652	0.045951	0.936584
73	H	0.149814	0.077034	0.936706
74	H	0.149646	0.076937	0.746467
75	N	0.027495	0.542122	0.008066
76	C	0.045312	0.524773	0.008053
77	N	0.027489	0.989605	0.008056
78	C	0.136929	0.57059	0.300351
79	C	0.100465	0.552357	0.30028
80	C	0.081803	0.543022	0.341451
81	H	0.087651	0.545951	0.269915
82	H	0.149814	0.577034	0.270039
83	N	0.027495	0.542122	0.3414
84	C	0.045312	0.524773	0.341386
85	N	0.027489	0.989605	0.34139
86	C	0.136929	0.57059	0.633686
87	C	0.100465	0.552357	0.633615
88	C	0.081803	0.543022	0.674784
89	C	0.10037	0.552302	0.382694
90	C	0.136832	0.570533	0.382769
91	H	0.087488	0.545858	0.413008
92	H	0.087651	0.545951	0.60325
93	H	0.149814	0.577034	0.603372
94	H	0.149645	0.576936	0.413133
95	N	0.027495	0.542122	0.674733
96	C	0.045312	0.524773	0.674719
97	N	0.027489	0.989605	0.674723
98	C	0.136929	0.57059	0.967019
99	C	0.100465	0.552357	0.966948
100	C	0.081803	0.543022	0.008117
101	C	0.10037	0.552302	0.716028
102	C	0.136832	0.570533	0.716102
103	H	0.087488	0.545858	0.746341
104	H	0.087651	0.545951	0.936584
105	H	0.149814	0.577034	0.936706
106	H	0.149645	0.576936	0.746467
107	C	0.191982	0.098109	0.008348
108	C	0.155494	0.079868	0.341596
109	C	0.28155	0.081854	0.30077
110	C	0.313036	0.081736	0.300685
111	H	0.272498	0.085554	0.270599
112	H	0.325803	0.085552	0.270511
113	C	0.313136	0.23558	0.300732
114	C	0.281611	0.204001	0.300709
115	H	0.32596	0.244504	0.270586
116	H	0.272684	0.191235	0.270526
117	C	0.244887	0.15107	0.341874
118	N	0.209717	0.133404	0.341725
119	C	0.191982	0.098109	0.341681
120	N	0.2097	0.080537	0.341773
121	C	0.24487	0.098033	0.341908
122	N	0.261811	0.133016	0.341956
123	C	0.155494	0.079868	0.67493
124	C	0.313273	0.082089	0.383037
125	C	0.28168	0.081987	0.383135
126	C	0.265856	0.08271	0.341986
127	C	0.28155	0.081854	0.634103
128	C	0.313036	0.081736	0.634018
129	C	0.329739	0.08272	0.341817
130	H	0.272498	0.085554	0.603931
131	H	0.2728	0.085895	0.413313
132	H	0.3261	0.085901	0.413171
133	H	0.325803	0.085552	0.603843
134	C	0.281641	0.203877	0.383091
135	C	0.313169	0.235446	0.383145
136	C	0.329716	0.251223	0.341962
137	C	0.313136	0.23558	0.634065
138	C	0.281611	0.204001	0.634042
139	C	0.265885	0.187383	0.341871
140	H	0.32596	0.244504	0.603921
141	H	0.326038	0.244323	0.413269
142	H	0.272733	0.191038	0.413232
143	H	0.272684	0.191235	0.60386
144	C	0.244887	0.15107	0.675208
145	N	0.209717	0.133404	0.675058
146	C	0.191982	0.098109	0.675014
147	N	0.2097	0.080537	0.675106
148	C	0.24487	0.098033	0.675241
149	N	0.261811	0.133016	0.675289
150	C	0.155494	0.079868	0.008263
151	C	0.313273	0.082089	0.71637
152	C	0.28168	0.081987	0.716468
153	C	0.265856	0.08271	0.675319
154	C	0.28155	0.081854	0.967436
155	C	0.313036	0.081736	0.967351
156	C	0.329739	0.08272	0.67515
157	H	0.272498	0.085554	0.937265
158	H	0.2728	0.085895	0.746646
159	H	0.3261	0.085901	0.746504
160	H	0.325803	0.085552	0.937177
161	C	0.281641	0.203877	0.716424
162	C	0.313169	0.235446	0.716478
163	C	0.329716	0.251223	0.675296
164	C	0.313136	0.23558	0.967399
165	C	0.281611	0.204001	0.967375
166	C	0.265885	0.187383	0.675204
167	H	0.32596	0.244504	0.937255
168	H	0.326038	0.244323	0.746602
169	H	0.272733	0.191038	0.746565
170	H	0.272684	0.191235	0.937194
171	C	0.191981	0.598108	0.008348
172	C	0.155493	0.579868	0.341596
173	C	0.28155	0.581856	0.30077
174	C	0.313036	0.581737	0.300685
175	H	0.272499	0.585555	0.270599
176	H	0.325803	0.585552	0.270511
177	C	0.313136	0.735581	0.300732
178	C	0.28161	0.704001	0.300709
179	H	0.32596	0.744505	0.270586
180	H	0.272684	0.691236	0.270526
181	C	0.244887	0.65107	0.341874
182	N	0.209716	0.633403	0.341725
183	C	0.191981	0.598108	0.341681
184	N	0.2097	0.580537	0.341773
185	C	0.24487	0.598033	0.341908
186	N	0.261811	0.633016	0.341956
187	C	0.155493	0.579868	0.67493
188	C	0.313272	0.582088	0.383037
189	C	0.281679	0.581987	0.383135
190	C	0.265855	0.582709	0.341986
191	C	0.28155	0.581856	0.634103
192	C	0.313036	0.581737	0.634018
193	C	0.329738	0.582719	0.341817
194	H	0.272499	0.585555	0.603931
195	H	0.272802	0.585896	0.413313
196	H	0.326099	0.585901	0.413171
197	H	0.325803	0.585552	0.603843
198	C	0.28164	0.703877	0.383091
199	C	0.313168	0.735447	0.383145
200	C	0.329716	0.751224	0.341962
201	C	0.313136	0.735581	0.634065
202	C	0.28161	0.704001	0.634042
203	C	0.265885	0.687384	0.341871
204	H	0.32596	0.744505	0.603921
205	H	0.326039	0.744324	0.413269
206	H	0.272733	0.691039	0.413232
207	H	0.272684	0.691236	0.60386
208	C	0.244887	0.65107	0.675208
209	N	0.209716	0.633403	0.675058
210	C	0.191981	0.598108	0.675014
211	N	0.2097	0.580537	0.675106
212	C	0.24487	0.598033	0.675241
213	N	0.261811	0.633016	0.675289
214	C	0.155493	0.579868	0.008263
215	C	0.313272	0.582088	0.71637
216	C	0.281679	0.581987	0.716468
217	C	0.265855	0.582709	0.675319
218	C	0.28155	0.581856	0.967436
219	C	0.313036	0.581737	0.967351
220	C	0.329738	0.582719	0.67515
221	H	0.272499	0.585555	0.937265
222	H	0.272802	0.585896	0.746646
223	H	0.326099	0.585901	0.746504
224	H	0.325803	0.585552	0.937177
225	C	0.28164	0.703877	0.716424
226	C	0.313168	0.735447	0.716478
227	C	0.329716	0.751224	0.675296
228	C	0.313136	0.735581	0.967399
229	C	0.28161	0.704001	0.967375
230	C	0.265885	0.687384	0.675204
231	H	0.32596	0.744505	0.937255
232	H	0.326039	0.744324	0.746602
233	H	0.272733	0.691039	0.746565
234	H	0.272684	0.691236	0.937194
235	C	0.366043	0.098017	0.008515
236	C	0.366034	0.272223	0.008535
237	C	0.366043	0.598018	0.008515
238	C	0.366034	0.772225	0.008535
239	C	0.366043	0.098017	0.341847
240	C	0.366034	0.272223	0.341867
241	C	0.366043	0.098017	0.67518
242	C	0.366034	0.272223	0.675201
243	C	0.366043	0.598018	0.341847
244	C	0.366034	0.772225	0.341867
245	C	0.366043	0.598018	0.67518
246	C	0.366034	0.772225	0.675201
247	N	0.436584	0.133387	0.008453
248	C	0.419085	0.151051	0.008562
249	N	0.3841	0.132998	0.008591
250	C	0.419081	0.272251	0.008565
251	N	0.436572	0.307417	0.008414
252	N	0.384095	0.255306	0.008639
253	C	0.464807	0.052299	0.049365
254	C	0.446581	0.070529	0.049439
255	H	0.471253	0.045863	0.079679
256	H	0.440183	0.07694	0.079805
257	C	0.464791	0.416727	0.049342
258	C	0.446562	0.380266	0.049407
259	H	0.471234	0.429604	0.079659
260	H	0.440161	0.367452	0.079769
261	C	0.43528	0.235525	0.049854
262	C	0.435282	0.203985	0.049819
263	C	0.434378	0.187341	0.008659
264	C	0.434404	0.251275	0.008708
265	H	0.431368	0.191146	0.079953
266	H	0.43134	0.24442	0.079994
267	N	0.436584	0.633388	0.008453
268	C	0.419085	0.651052	0.008562
269	N	0.384101	0.632997	0.008591
270	C	0.419079	0.772251	0.008565
271	N	0.436573	0.807417	0.008414
272	N	0.384093	0.755306	0.008639
273	C	0.464807	0.5523	0.049365
274	C	0.446582	0.57053	0.049439
275	H	0.471251	0.545863	0.079679
276	H	0.440183	0.576941	0.079805
277	C	0.46479	0.916727	0.049342
278	C	0.446561	0.880266	0.049407
279	H	0.471233	0.929604	0.079659
280	H	0.44016	0.867452	0.079769
281	C	0.43528	0.735527	0.049854
282	C	0.435282	0.703985	0.049819
283	C	0.434378	0.687342	0.008659
284	C	0.434403	0.751275	0.008708
285	H	0.431367	0.691148	0.079953
286	H	0.431339	0.74442	0.079994
287	C	0.744885	0.15107	0.008541
288	N	0.709716	0.133404	0.008392
289	N	0.709701	0.080537	0.00844
290	C	0.74487	0.098033	0.008576
291	N	0.761811	0.133016	0.008622
292	C	0.866042	0.098017	0.008515
293	N	0.936583	0.133387	0.008453
294	C	0.919084	0.151051	0.008562
295	N	0.884101	0.132998	0.008591
296	C	0.91908	0.272251	0.008565
297	N	0.936573	0.307417	0.008414
298	C	0.866033	0.272223	0.008535
299	N	0.884094	0.255306	0.008639
300	C	0.60037	0.052302	0.049361
301	C	0.636832	0.070533	0.049435
302	H	0.587486	0.045857	0.079675
303	H	0.649646	0.076937	0.079799
304	C	0.964806	0.052299	0.049365
305	C	0.946582	0.070529	0.049439
306	H	0.971252	0.045863	0.079679
307	H	0.940182	0.07694	0.079805
308	C	0.96479	0.416727	0.049342
309	C	0.946561	0.380266	0.049407
310	H	0.971233	0.429604	0.079659
311	H	0.94016	0.367452	0.079769
312	C	0.813272	0.082089	0.049704
313	C	0.781678	0.081987	0.049803
314	C	0.765855	0.08271	0.008653
315	C	0.829738	0.08272	0.008484
316	H	0.772801	0.085895	0.079981
317	H	0.826099	0.085901	0.079836
318	C	0.935281	0.235525	0.049854
319	C	0.935281	0.203985	0.049819
320	C	0.934377	0.187341	0.008659
321	C	0.934403	0.251275	0.008708
322	H	0.931366	0.191146	0.079953
323	H	0.931339	0.24442	0.079994
324	C	0.781641	0.203877	0.049758
325	C	0.813168	0.235446	0.049812
326	C	0.829715	0.251223	0.008631
327	C	0.765884	0.187383	0.008537
328	H	0.826037	0.244323	0.079937
329	H	0.772733	0.191038	0.0799
330	C	0.744885	0.65107	0.008541
331	N	0.709716	0.633403	0.008392
332	N	0.709699	0.580537	0.00844
333	C	0.74487	0.598033	0.008576
334	N	0.761811	0.633016	0.008622
335	C	0.866042	0.598018	0.008515
336	N	0.936584	0.633388	0.008453
337	C	0.919084	0.651052	0.008562
338	N	0.884099	0.632997	0.008591
339	C	0.919079	0.772251	0.008565
340	N	0.936573	0.807417	0.008414
341	C	0.866034	0.772225	0.008535
342	N	0.884094	0.755306	0.008639
343	C	0.60037	0.552302	0.049361
344	C	0.636832	0.570533	0.049435
345	H	0.587486	0.545858	0.079675
346	H	0.649644	0.576936	0.079799
347	C	0.964806	0.5523	0.049365
348	C	0.94658	0.57053	0.049439
349	H	0.971251	0.545863	0.079679
350	H	0.940183	0.576941	0.079805
351	C	0.96479	0.916727	0.049342
352	C	0.946561	0.880266	0.049407
353	H	0.971233	0.929604	0.079659
354	H	0.94016	0.867452	0.079769
355	C	0.813271	0.582088	0.049704
356	C	0.781678	0.581987	0.049803
357	C	0.765855	0.582709	0.008653
358	C	0.829738	0.582719	0.008484
359	H	0.7728	0.585896	0.079981
360	H	0.8261	0.585901	0.079836
361	C	0.935279	0.735527	0.049854
362	C	0.935281	0.703985	0.049819
363	C	0.934378	0.687342	0.008659
364	C	0.934403	0.751275	0.008708
365	H	0.931367	0.691148	0.079953
366	H	0.931339	0.74442	0.079994
367	C	0.78164	0.703877	0.049758
368	C	0.813168	0.735447	0.049812
369	C	0.829715	0.751224	0.008631
370	C	0.765884	0.687384	0.008537
371	H	0.826038	0.744324	0.079937
372	H	0.772732	0.691039	0.0799
373	C	0.492317	0.471783	0.008046
374	N	0.474965	0.4896	0.00806
375	C	0.492321	0.024768	0.008056
376	N	0.383708	0.080519	0.008371
377	C	0.419006	0.098092	0.008351
378	C	0.418993	0.325128	0.008307
379	N	0.383697	0.307391	0.008371
380	C	0.446516	0.070561	0.300356
381	C	0.464742	0.052332	0.300284
382	C	0.474079	0.043009	0.341454
383	C	0.437246	0.07985	0.341603
384	H	0.471143	0.045921	0.269919
385	H	0.440071	0.076997	0.270044
386	C	0.446506	0.380181	0.300324
387	C	0.464737	0.416642	0.300261
388	C	0.47407	0.435296	0.341437
389	C	0.43723	0.361615	0.341566
390	H	0.471142	0.429459	0.269899
391	H	0.440066	0.367302	0.270008
392	C	0.435156	0.203961	0.300857
393	C	0.435268	0.235557	0.300836
394	H	0.431373	0.19122	0.270662
395	H	0.431377	0.244489	0.270694
396	C	0.492317	0.471783	0.341379
397	N	0.474965	0.4896	0.341393
398	C	0.492321	0.024768	0.34139
399	N	0.383708	0.080519	0.341705
400	C	0.419006	0.098092	0.341684
401	N	0.436584	0.133387	0.341786
402	C	0.419085	0.151051	0.341895
403	N	0.3841	0.132998	0.341925
404	C	0.419081	0.272251	0.341898
405	N	0.436572	0.307417	0.341749
406	C	0.418993	0.325128	0.34164
407	N	0.383697	0.307391	0.341705
408	N	0.384095	0.255306	0.341973
409	C	0.446516	0.070561	0.633689
410	C	0.464742	0.052332	0.633618
411	C	0.474079	0.043009	0.674787
412	C	0.464807	0.052299	0.382698
413	C	0.446581	0.070529	0.382772
414	C	0.437246	0.07985	0.674936
415	H	0.471253	0.045863	0.413011
416	H	0.471143	0.045921	0.603254
417	H	0.440071	0.076997	0.603376
418	H	0.440183	0.07694	0.413137
419	C	0.446506	0.380181	0.633659
420	C	0.464737	0.416642	0.633594
421	C	0.47407	0.435296	0.67477
422	C	0.464791	0.416727	0.382674
423	C	0.446562	0.380266	0.382738
424	C	0.43723	0.361615	0.674899
425	H	0.471234	0.429604	0.412991
426	H	0.471142	0.429459	0.603233
427	H	0.440066	0.367302	0.603342
428	H	0.440161	0.367452	0.413103
429	C	0.43528	0.235525	0.383189
430	C	0.435282	0.203985	0.383152
431	C	0.434378	0.187341	0.341993
432	C	0.435156	0.203961	0.634191
433	C	0.435268	0.235557	0.63417
434	C	0.434404	0.251275	0.34204
435	H	0.431373	0.19122	0.603996
436	H	0.431368	0.191146	0.413286
437	H	0.43134	0.24442	0.413327
438	H	0.431377	0.244489	0.604026
439	C	0.492317	0.471783	0.674713
440	N	0.474965	0.4896	0.674726
441	C	0.492321	0.024768	0.674723
442	N	0.383708	0.080519	0.675038
443	C	0.419006	0.098092	0.675018
444	N	0.436584	0.133387	0.675119
445	C	0.419085	0.151051	0.675228
446	N	0.3841	0.132998	0.675258
447	C	0.419081	0.272251	0.675231
448	N	0.436572	0.307417	0.675082
449	C	0.418993	0.325128	0.674974
450	N	0.383697	0.307391	0.675038
451	N	0.384095	0.255306	0.675306
452	C	0.446516	0.070561	0.967022
453	C	0.464742	0.052332	0.966951
454	C	0.474079	0.043009	0.008121
455	C	0.464807	0.052299	0.716031
456	C	0.446581	0.070529	0.716106
457	C	0.437246	0.07985	0.00827
458	H	0.471253	0.045863	0.746345
459	H	0.471143	0.045921	0.936587
460	H	0.440071	0.076997	0.936709
461	H	0.440183	0.07694	0.74647
462	C	0.446506	0.380181	0.966992
463	C	0.464737	0.416642	0.966928
464	C	0.47407	0.435296	0.008104
465	C	0.464791	0.416727	0.716007
466	C	0.446562	0.380266	0.716072
467	C	0.43723	0.361615	0.008232
468	H	0.471234	0.429604	0.746328
469	H	0.471142	0.429459	0.936567
470	H	0.440066	0.367302	0.936675
471	H	0.440161	0.367452	0.746436
472	C	0.43528	0.235525	0.716523
473	C	0.435282	0.203985	0.716485
474	C	0.434378	0.187341	0.675326
475	C	0.435156	0.203961	0.967524
476	C	0.435268	0.235557	0.967504
477	C	0.434404	0.251275	0.675374
478	H	0.431373	0.19122	0.937329
479	H	0.431368	0.191146	0.746619
480	H	0.43134	0.24442	0.74666
481	H	0.431377	0.244489	0.93736
482	C	0.492317	0.971785	0.008046
483	N	0.474966	0.9896	0.00806
484	C	0.492321	0.524768	0.008056
485	N	0.383707	0.580519	0.008371
486	C	0.419006	0.598093	0.008351
487	C	0.418993	0.825128	0.008307
488	N	0.383696	0.807391	0.008371
489	C	0.446516	0.570561	0.300356
490	C	0.464743	0.552331	0.300284
491	C	0.474079	0.543009	0.341454
492	C	0.437245	0.57985	0.341603
493	H	0.471143	0.545922	0.269919
494	H	0.44007	0.576998	0.270044
495	C	0.446507	0.880181	0.300324
496	C	0.464736	0.916642	0.300261
497	C	0.474069	0.935296	0.341437
498	C	0.43723	0.861614	0.341566
499	H	0.471142	0.929459	0.269899
500	H	0.440066	0.867304	0.270008
501	C	0.435155	0.703962	0.300857
502	C	0.435269	0.735558	0.300836
503	H	0.431373	0.69122	0.270662
504	H	0.431376	0.744489	0.270694
505	C	0.492317	0.971785	0.341379
506	N	0.474966	0.9896	0.341393
507	C	0.492321	0.524768	0.34139
508	N	0.383707	0.580519	0.341705
509	C	0.419006	0.598093	0.341684
510	N	0.436584	0.633388	0.341786
511	C	0.419085	0.651052	0.341895
512	N	0.384101	0.632997	0.341925
513	C	0.419079	0.772251	0.341898
514	N	0.436573	0.807417	0.341749
515	C	0.418993	0.825128	0.34164
516	N	0.383696	0.807391	0.341705
517	N	0.384093	0.755306	0.341973
518	C	0.446516	0.570561	0.633689
519	C	0.464743	0.552331	0.633618
520	C	0.474079	0.543009	0.674787
521	C	0.464807	0.5523	0.382698
522	C	0.446582	0.57053	0.382772
523	C	0.437245	0.57985	0.674936
524	H	0.471251	0.545863	0.413011
525	H	0.471143	0.545922	0.603254
526	H	0.44007	0.576998	0.603376
527	H	0.440183	0.576941	0.413137
528	C	0.446507	0.880181	0.633659
529	C	0.464736	0.916642	0.633594
530	C	0.474069	0.935296	0.67477
531	C	0.46479	0.916727	0.382674
532	C	0.446561	0.880266	0.382738
533	C	0.43723	0.861614	0.674899
534	H	0.471233	0.929604	0.412991
535	H	0.471142	0.929459	0.603233
536	H	0.440066	0.867304	0.603342
537	H	0.44016	0.867452	0.413103
538	C	0.43528	0.735527	0.383189
539	C	0.435282	0.703985	0.383152
540	C	0.434378	0.687342	0.341993
541	C	0.435155	0.703962	0.634191
542	C	0.435269	0.735558	0.63417
543	C	0.434403	0.751275	0.34204
544	H	0.431373	0.69122	0.603996
545	H	0.431367	0.691148	0.413286
546	H	0.431339	0.74442	0.413327
547	H	0.431376	0.744489	0.604026
548	C	0.492317	0.971785	0.674713
549	N	0.474966	0.9896	0.674726
550	C	0.492321	0.524768	0.674723
551	N	0.383707	0.580519	0.675038
552	C	0.419006	0.598093	0.675018
553	N	0.436584	0.633388	0.675119
554	C	0.419085	0.651052	0.675228
555	N	0.384101	0.632997	0.675258
556	C	0.419079	0.772251	0.675231
557	N	0.436573	0.807417	0.675082
558	C	0.418993	0.825128	0.674974
559	N	0.383696	0.807391	0.675038
560	N	0.384093	0.755306	0.675306
561	C	0.446516	0.570561	0.967022
562	C	0.464743	0.552331	0.966951
563	C	0.474079	0.543009	0.008121
564	C	0.464807	0.5523	0.716031
565	C	0.446582	0.57053	0.716106
566	C	0.437245	0.57985	0.00827
567	H	0.471251	0.545863	0.746345
568	H	0.471143	0.545922	0.936587
569	H	0.44007	0.576998	0.936709
570	H	0.440183	0.576941	0.74647
571	C	0.446507	0.880181	0.966992
572	C	0.464736	0.916642	0.966928
573	C	0.474069	0.935296	0.008104
574	C	0.46479	0.916727	0.716007
575	C	0.446561	0.880266	0.716072
576	C	0.43723	0.861614	0.008232
577	H	0.471233	0.929604	0.746324
578	H	0.471142	0.929459	0.936567
579	H	0.440066	0.867304	0.936675
580	H	0.44016	0.867452	0.746436
581	C	0.43528	0.735527	0.716523
582	C	0.435282	0.703985	0.716485
583	C	0.434378	0.687342	0.675326
584	C	0.435155	0.703962	0.967524
585	C	0.435269	0.735558	0.967504
586	C	0.434403	0.751275	0.675374
587	H	0.431373	0.69122	0.937329
588	H	0.431367	0.691148	0.746619
589	H	0.431339	0.74442	0.74666
590	H	0.431376	0.744489	0.93736
591	C	0.992316	0.471783	0.008046
592	N	0.974966	0.4896	0.00806
593	C	0.99232	0.024768	0.008056
594	N	0.527494	0.042122	0.008066
595	C	0.545313	0.024774	0.008053
596	N	0.52749	0.489605	0.008056
597	C	0.691981	0.098109	0.008348
598	N	0.883707	0.080519	0.008371
599	C	0.919005	0.098092	0.008351
600	C	0.918992	0.325128	0.008307
601	N	0.883695	0.307391	0.008371
602	C	0.63693	0.07059	0.300351
603	C	0.600464	0.052356	0.30028
604	C	0.581802	0.043021	0.341451
605	C	0.655494	0.079868	0.341596
606	H	0.587652	0.045951	0.269915
607	H	0.649813	0.077034	0.270039
608	C	0.946515	0.070561	0.300356
609	C	0.964744	0.052332	0.300284
610	C	0.97408	0.043009	0.341454
611	C	0.937245	0.07985	0.341603
612	H	0.971142	0.045921	0.269919
613	H	0.940069	0.076997	0.270044
614	C	0.946507	0.380181	0.300324
615	C	0.964736	0.416642	0.300261
616	C	0.974069	0.435296	0.341437
617	C	0.937229	0.361615	0.341566
618	H	0.971143	0.429459	0.269899
619	H	0.940065	0.367302	0.270008
620	C	0.781549	0.081854	0.30077
621	C	0.813035	0.081736	0.300685
622	H	0.772499	0.085554	0.270599
623	H	0.825802	0.085552	0.270511
624	C	0.935155	0.203961	0.300857
625	C	0.935267	0.235557	0.300836
626	H	0.931372	0.19122	0.270662
627	H	0.931376	0.244489	0.270694
628	C	0.813136	0.23558	0.300732
629	C	0.781611	0.204001	0.300709
630	H	0.82596	0.244504	0.270586
631	H	0.772684	0.191235	0.270526
632	C	0.992316	0.471783	0.341379
633	N	0.974966	0.4896	0.341393
634	C	0.99232	0.024768	0.34139
635	N	0.527494	0.042122	0.3414
636	C	0.545313	0.024774	0.341386
637	N	0.52749	0.489605	0.34139
638	C	0.744885	0.15107	0.341874
639	N	0.709716	0.133404	0.341725
640	C	0.691981	0.098109	0.341681
641	N	0.709701	0.080537	0.341773
642	C	0.74487	0.098033	0.341908
643	N	0.761811	0.133016	0.341956
644	C	0.866042	0.098017	0.341847
645	N	0.883707	0.080519	0.341705
646	C	0.919005	0.098092	0.341684
647	N	0.936583	0.133387	0.341786
648	C	0.919084	0.151051	0.341895
649	N	0.884101	0.132998	0.341925
650	C	0.91908	0.272251	0.341898
651	N	0.936573	0.307417	0.341749
652	C	0.918992	0.325128	0.34164
653	N	0.883695	0.307391	0.341705
654	C	0.866033	0.272223	0.341867
655	N	0.884094	0.255306	0.341973
656	C	0.63693	0.07059	0.633686
657	C	0.600464	0.052356	0.633615
658	C	0.581802	0.043021	0.674784
659	C	0.60037	0.052302	0.382694
660	C	0.636832	0.070533	0.382769
661	C	0.655494	0.079868	0.67493
662	H	0.587486	0.045857	0.413008
663	H	0.587652	0.045951	0.60325
664	H	0.649813	0.077034	0.603372
665	H	0.649646	0.076937	0.413133
666	C	0.946515	0.070561	0.633689
667	C	0.964744	0.052332	0.633618
668	C	0.97408	0.043009	0.674787
669	C	0.964806	0.052299	0.382698
670	C	0.946582	0.070529	0.382772
671	C	0.937245	0.07985	0.674936
672	H	0.971252	0.045863	0.413011
673	H	0.971142	0.045921	0.603254
674	H	0.940069	0.076997	0.603376
675	H	0.940182	0.07694	0.413137
676	C	0.946507	0.380181	0.633659
677	C	0.964736	0.416642	0.633594
678	C	0.974069	0.435296	0.67477
679	C	0.96479	0.416727	0.382674
680	C	0.946561	0.380266	0.382738
681	C	0.937229	0.361615	0.674899
682	H	0.971233	0.429604	0.412991
683	H	0.971143	0.429459	0.603233
684	H	0.940065	0.367302	0.603342
685	H	0.94016	0.367452	0.413103
686	C	0.813272	0.082089	0.383037
687	C	0.781678	0.081987	0.383135
688	C	0.765855	0.08271	0.341986
689	C	0.781549	0.081854	0.634103
690	C	0.813035	0.081736	0.634018
691	C	0.829738	0.08272	0.341817
692	H	0.772499	0.085554	0.603931
693	H	0.772801	0.085895	0.413313
694	H	0.826099	0.085901	0.413171
695	H	0.825802	0.085552	0.603843
696	C	0.935281	0.235525	0.383189
697	C	0.935281	0.203985	0.383152
698	C	0.934377	0.187341	0.341993
699	C	0.935155	0.203961	0.634191
700	C	0.935267	0.235557	0.63417
701	C	0.934403	0.251275	0.34204
702	H	0.931372	0.19122	0.603996
703	H	0.931366	0.191146	0.413286
704	H	0.931339	0.24442	0.413327
705	H	0.931376	0.244489	0.604026
706	C	0.781641	0.203877	0.383091
707	C	0.813168	0.235446	0.383145
708	C	0.829715	0.251223	0.341962
709	C	0.813136	0.23558	0.634065
710	C	0.781611	0.204001	0.634042
711	C	0.765884	0.187383	0.341871
712	H	0.82596	0.244504	0.603921
713	H	0.826037	0.244323	0.413269
714	H	0.772733	0.191038	0.413232
715	H	0.772684	0.191235	0.60386
716	C	0.992316	0.471783	0.674713
717	N	0.974966	0.4896	0.674726
718	C	0.99232	0.024768	0.674723
719	N	0.527494	0.042122	0.674733
720	C	0.545313	0.024774	0.674719
721	N	0.52749	0.489605	0.674723
722	C	0.744885	0.15107	0.675208
723	N	0.709716	0.133404	0.675058
724	C	0.691981	0.098109	0.675014
725	N	0.709701	0.080537	0.675106
726	C	0.74487	0.098033	0.675241
727	N	0.761811	0.133016	0.675289
728	C	0.866042	0.098017	0.67518
729	N	0.883707	0.080519	0.675038
730	C	0.919005	0.098092	0.675018
731	N	0.936583	0.133387	0.675119
732	C	0.919084	0.151051	0.675228
733	N	0.884101	0.132998	0.675258
734	C	0.91908	0.272251	0.675231
735	N	0.936573	0.307417	0.675082
736	C	0.918992	0.325128	0.674974
737	N	0.883695	0.307391	0.675038
738	C	0.866033	0.272223	0.675201
739	N	0.884094	0.255306	0.675306
740	C	0.63693	0.07059	0.967019
741	C	0.600464	0.052356	0.966948
742	C	0.581802	0.043021	0.008117
743	C	0.60037	0.052302	0.716028
744	C	0.636832	0.070533	0.716102
745	C	0.655494	0.079868	0.008263
746	H	0.587486	0.045857	0.746341
747	H	0.587652	0.045951	0.936584
748	H	0.649813	0.077034	0.936706
749	H	0.649646	0.076937	0.746467
750	C	0.946515	0.070561	0.967022
751	C	0.964744	0.052332	0.966951
752	C	0.97408	0.043009	0.008121
753	C	0.964806	0.052299	0.716031
754	C	0.946582	0.070529	0.716106
755	C	0.937245	0.07985	0.00827
756	H	0.971252	0.045863	0.746345
757	H	0.971142	0.045921	0.936587
758	H	0.940069	0.076997	0.936709
759	H	0.940182	0.07694	0.74647
760	C	0.946507	0.380181	0.966992
761	C	0.964736	0.416642	0.966928
762	C	0.974069	0.435296	0.008104
763	C	0.96479	0.416727	0.716007
764	C	0.946561	0.380266	0.716072
765	C	0.937229	0.361615	0.008232
766	H	0.971233	0.429604	0.746328
767	H	0.971143	0.429459	0.936567
768	H	0.940065	0.367302	0.936675
769	H	0.94016	0.367452	0.746436
770	C	0.813272	0.082089	0.71637
771	C	0.781678	0.081987	0.716468
772	C	0.765855	0.08271	0.675319
773	C	0.781549	0.081854	0.967436
774	C	0.813035	0.081736	0.967351
775	C	0.829738	0.08272	0.67515
776	H	0.772499	0.085554	0.937265
777	H	0.772801	0.085895	0.746646
778	H	0.826099	0.085901	0.746504
779	H	0.825802	0.085552	0.937177
780	C	0.935281	0.235525	0.716523
781	C	0.935281	0.203985	0.716485
782	C	0.934377	0.187341	0.675326
783	C	0.935155	0.203961	0.967524
784	C	0.935267	0.235557	0.967504
785	C	0.934403	0.251275	0.675374
786	H	0.931372	0.19122	0.937329
787	H	0.931366	0.191146	0.746619
788	H	0.931339	0.24442	0.74666
789	H	0.931376	0.244489	0.93736
790	C	0.781641	0.203877	0.716424
791	C	0.813168	0.235446	0.716478
792	C	0.829715	0.251223	0.675296
793	C	0.813136	0.23558	0.967399
794	C	0.781611	0.204001	0.967375
795	C	0.765884	0.187383	0.675204
796	H	0.82596	0.244504	0.937255
797	H	0.826037	0.244323	0.746602
798	H	0.772733	0.191038	0.746565
799	H	0.772684	0.191235	0.937194
800	C	0.992317	0.971785	0.008046
801	N	0.974964	0.9896	0.00806
802	C	0.99232	0.524768	0.008056
803	N	0.527494	0.542122	0.008066
804	C	0.545312	0.524773	0.008053
805	N	0.527489	0.989605	0.008056
806	C	0.69198	0.598108	0.008348
807	N	0.883707	0.580519	0.008371
808	C	0.919005	0.598093	0.008351
809	C	0.918992	0.825128	0.008307
810	N	0.883695	0.807391	0.008371
811	C	0.636927	0.57059	0.300351
812	C	0.600465	0.552357	0.30028
813	C	0.581803	0.543022	0.341451
814	C	0.655491	0.579868	0.341596
815	H	0.587651	0.545951	0.269915
816	H	0.649814	0.577034	0.270039
817	C	0.946515	0.570561	0.300356
818	C	0.964741	0.552331	0.300284
819	C	0.974077	0.543009	0.341454
820	C	0.937245	0.57985	0.341603
821	H	0.971142	0.545922	0.269919
822	H	0.94007	0.576998	0.270044
823	C	0.946505	0.880181	0.300324
824	C	0.964736	0.916642	0.300261
825	C	0.974069	0.935296	0.341437
826	C	0.937229	0.861614	0.341566
827	H	0.97114	0.929459	0.269899
828	H	0.940066	0.867304	0.270008
829	C	0.78155	0.581856	0.30077
830	C	0.813035	0.581737	0.300685
831	H	0.7725	0.585555	0.270599
832	H	0.825802	0.585552	0.270511
833	C	0.935155	0.703962	0.300857
834	C	0.935268	0.735558	0.300836
835	H	0.931372	0.69122	0.270662
836	H	0.931376	0.744489	0.270694
837	C	0.813135	0.735581	0.300732
838	C	0.781611	0.704001	0.300709
839	H	0.825958	0.744505	0.270586
840	H	0.772684	0.691236	0.270526
841	C	0.992317	0.971785	0.341379
842	N	0.974964	0.9896	0.341393
843	C	0.99232	0.524768	0.34139
844	N	0.527494	0.542122	0.3414
845	C	0.545312	0.524773	0.341386
846	N	0.527489	0.989605	0.34139
847	C	0.744885	0.65107	0.341874
848	N	0.709716	0.633403	0.341725
849	C	0.69198	0.598108	0.341681
850	N	0.709699	0.580537	0.341773
851	C	0.74487	0.598033	0.341908
852	N	0.761811	0.633016	0.341956
853	C	0.866042	0.598018	0.341847
854	N	0.883707	0.580519	0.341705
855	C	0.919005	0.598093	0.341684
856	N	0.936584	0.633388	0.341786
857	C	0.919084	0.651052	0.341895
858	N	0.884099	0.632997	0.341925
859	C	0.919079	0.772251	0.341898
860	N	0.936573	0.807417	0.341749
861	C	0.918992	0.825128	0.34164
862	N	0.883695	0.807391	0.341705
863	C	0.866034	0.772225	0.341867
864	N	0.884094	0.755306	0.341973
865	C	0.636927	0.57059	0.633686
866	C	0.600465	0.552357	0.633615
867	C	0.581803	0.543022	0.674784
868	C	0.60037	0.552302	0.382694
869	C	0.636832	0.570533	0.382769
870	C	0.655491	0.579868	0.67493
871	H	0.587486	0.545858	0.413008
872	H	0.587651	0.545951	0.60325
873	H	0.649814	0.577034	0.603372
874	H	0.649644	0.576936	0.413133
875	C	0.946515	0.570561	0.633689
876	C	0.964741	0.552331	0.633618
877	C	0.974077	0.543009	0.674787
878	C	0.964806	0.5523	0.382698
879	C	0.94658	0.57053	0.382772
880	C	0.937245	0.57985	0.674936
881	H	0.971251	0.545863	0.413011
882	H	0.971142	0.545922	0.603254
883	H	0.94007	0.576998	0.603376
884	H	0.940183	0.576941	0.413137
885	C	0.946505	0.880181	0.633659
886	C	0.964736	0.916642	0.633594
887	C	0.974069	0.935296	0.67477
888	C	0.96479	0.916727	0.382674
889	C	0.946561	0.880266	0.382738
890	C	0.937229	0.861614	0.674899
891	H	0.971233	0.929604	0.412991
892	H	0.97114	0.929459	0.603233
893	H	0.940066	0.867304	0.603342
894	H	0.94016	0.867452	0.413103
895	C	0.813271	0.582088	0.383037
896	C	0.781678	0.581987	0.383135
897	C	0.765855	0.582709	0.341986
898	C	0.78155	0.581856	0.634103
899	C	0.813035	0.581737	0.634018
900	C	0.829738	0.582719	0.341817
901	H	0.7725	0.585555	0.603931
902	H	0.7728	0.585896	0.413313
903	H	0.8261	0.585901	0.413171
904	H	0.825802	0.585552	0.603843
905	C	0.935279	0.735527	0.383189
906	C	0.935281	0.703985	0.383152
907	C	0.934378	0.687342	0.341993
908	C	0.935155	0.703962	0.634191
909	C	0.935268	0.735558	0.63417
910	C	0.934403	0.751275	0.34204
911	H	0.931372	0.69122	0.603996
912	H	0.931367	0.691148	0.413286
913	H	0.931339	0.74442	0.413327
914	H	0.931376	0.744489	0.604026
915	C	0.78164	0.703877	0.383091
916	C	0.813168	0.735447	0.383145
917	C	0.829715	0.751224	0.341962
918	C	0.813135	0.735581	0.634065
919	C	0.781611	0.704001	0.634042
920	C	0.765884	0.687384	0.341871
921	H	0.825958	0.744505	0.603921
922	H	0.826038	0.744324	0.413269
923	H	0.772732	0.691039	0.413232
924	H	0.772684	0.691236	0.60386
925	C	0.992317	0.971785	0.674713
926	N	0.974964	0.9896	0.674726
927	C	0.99232	0.524768	0.674723
928	N	0.527494	0.542122	0.674733
929	C	0.545312	0.524773	0.674719
930	N	0.527489	0.989605	0.674723
931	C	0.744885	0.65107	0.675208
932	N	0.709716	0.633403	0.675058
933	C	0.69198	0.598108	0.675014
934	N	0.709699	0.580537	0.675106
935	C	0.74487	0.598033	0.675241
936	N	0.761811	0.633016	0.675289
937	C	0.866042	0.598018	0.67518
938	N	0.883707	0.580519	0.675038
939	C	0.919005	0.598093	0.675018
940	N	0.936584	0.633388	0.675119
941	C	0.919084	0.651052	0.675228
942	N	0.884099	0.632997	0.675258
943	C	0.919079	0.772251	0.675231
944	N	0.936573	0.807417	0.675082
945	C	0.918992	0.825128	0.674974
946	N	0.883695	0.807391	0.675038
947	C	0.866034	0.772225	0.675201
948	N	0.884094	0.755306	0.675306
949	C	0.636927	0.57059	0.967019
950	C	0.600465	0.552357	0.966948
951	C	0.581803	0.543022	0.008117
952	C	0.60037	0.552302	0.716028
953	C	0.636832	0.570533	0.716102
954	C	0.655491	0.579868	0.008263
955	H	0.587486	0.545858	0.746341
956	H	0.587651	0.545951	0.936584
957	H	0.649814	0.577034	0.936706
958	H	0.649644	0.576936	0.746467
959	C	0.946515	0.570561	0.967022
960	C	0.964741	0.552331	0.966951
961	C	0.974077	0.543009	0.008121
962	C	0.964806	0.5523	0.716031
963	C	0.94658	0.57053	0.716106
964	C	0.937245	0.57985	0.00827
965	H	0.971251	0.545863	0.746345
966	H	0.971142	0.545922	0.936587
967	H	0.94007	0.576998	0.936709
968	H	0.940183	0.576941	0.74647
969	C	0.946505	0.880181	0.966992
970	C	0.964736	0.916642	0.966928
971	C	0.974069	0.935296	0.008104
972	C	0.96479	0.916727	0.716007
973	C	0.946561	0.880266	0.716072
974	C	0.937229	0.861614	0.008232
975	H	0.971233	0.929604	0.746324
976	H	0.97114	0.929459	0.936567
977	H	0.940066	0.867304	0.936675
978	H	0.94016	0.867452	0.746436
979	C	0.813271	0.582088	0.71637
980	C	0.781678	0.581987	0.716468
981	C	0.765855	0.582709	0.675319
982	C	0.78155	0.581856	0.967436
983	C	0.813035	0.581737	0.967351
984	C	0.829738	0.582719	0.67515
985	H	0.7725	0.585555	0.937265
986	H	0.7728	0.585896	0.746646
987	H	0.8261	0.585901	0.746504
988	H	0.825802	0.585552	0.937177
989	C	0.935279	0.735527	0.716523
990	C	0.935281	0.703985	0.716485
991	C	0.934378	0.687342	0.675326
992	C	0.935155	0.703962	0.967524
993	C	0.935268	0.735558	0.967504
994	C	0.934403	0.751275	0.675374
995	H	0.931372	0.69122	0.937329
996	H	0.931367	0.691148	0.746619
997	H	0.931339	0.74442	0.74666
998	H	0.931376	0.744489	0.93736
999	C	0.78164	0.703877	0.716424
1000	C	0.813168	0.735447	0.716478
1001	C	0.829715	0.751224	0.675296
1002	C	0.813135	0.735581	0.967399
1003	C	0.781611	0.704001	0.967375
1004	C	0.765884	0.687384	0.675204
1005	H	0.825958	0.744505	0.937255
1006	H	0.826038	0.744324	0.746602
1007	H	0.772732	0.691039	0.746565
1008	H	0.772684	0.691236	0.937194
