data_C720H576N144_2018-02-15_10:37:45
#******************************************
#
# CIF file created by Zeo++
# Zeo++ is an open source package to
# analyze microporous materials
#
#*******************************************

_cell_length_a		44.9816   
_cell_length_b		44.9861   
_cell_length_c		29.6128   
_cell_angle_alpha		90   
_cell_angle_beta		90   
_cell_angle_gamma		120.01   

_symmetry_space_group_name_H-M		'P1'
_symmetry_Int_Tables_number		1
_symmetry_cell_setting		Monoclinic

loop_
_symmetry_equiv_pos_as_xyz
'+x,+y,+z'

loop_
_atom_site_label
_atom_site_type_symbol
_atom_site_fract_x
_atom_site_fract_y
_atom_site_fract_z
1	N	0.024583	0.040002	0.00628
2	C	0.042451	0.02289	0.006202
3	N	0.024596	0.487904	0.006283
4	C	0.097775	0.050619	0.298474
5	C	0.079109	0.041231	0.339988
6	C	0.09766	0.050476	0.048272
7	C	0.079849	0.041675	0.25399
8	H	0.097582	0.050576	0.225423
9	H	0.063695	0.053331	0.251161
10	H	0.06373	0.013862	0.251094
11	C	0.081063	0.042128	0.093652
12	H	0.053112	0.028136	0.092399
13	H	0.089024	0.065817	0.112457
14	H	0.089053	0.026395	0.112381
15	N	0.024583	0.040002	0.339613
16	C	0.042451	0.02289	0.339535
17	N	0.024596	0.487904	0.339616
18	C	0.097775	0.050619	0.631807
19	C	0.079109	0.041231	0.673323
20	C	0.09766	0.050476	0.381605
21	C	0.079849	0.041675	0.587323
22	H	0.097582	0.050576	0.558758
23	H	0.063695	0.053331	0.584496
24	H	0.06373	0.013862	0.584429
25	C	0.081063	0.042128	0.426987
26	H	0.053112	0.028136	0.425734
27	H	0.089024	0.065817	0.44579
28	H	0.089053	0.026395	0.445715
29	N	0.024583	0.040002	0.672948
30	C	0.042451	0.02289	0.672867
31	N	0.024596	0.487904	0.672951
32	C	0.097775	0.050619	0.965142
33	C	0.079109	0.041231	0.006654
34	C	0.09766	0.050476	0.71494
35	C	0.079849	0.041675	0.920658
36	H	0.097582	0.050576	0.892089
37	H	0.063695	0.053331	0.917828
38	H	0.06373	0.013862	0.917761
39	C	0.081063	0.042128	0.760319
40	H	0.053112	0.028136	0.759066
41	H	0.089024	0.065817	0.779125
42	H	0.089053	0.026395	0.779047
43	N	0.024583	0.540003	0.00628
44	C	0.042452	0.522891	0.006202
45	N	0.024596	0.987905	0.006283
46	C	0.097776	0.55062	0.298474
47	C	0.07911	0.541232	0.339988
48	C	0.097661	0.550476	0.048272
49	C	0.07985	0.541676	0.25399
50	H	0.097583	0.550576	0.225423
51	H	0.063695	0.553331	0.251161
52	H	0.063731	0.513862	0.251094
53	C	0.081063	0.542128	0.093652
54	H	0.053112	0.528135	0.092399
55	H	0.089024	0.565817	0.112457
56	H	0.089053	0.526395	0.112381
57	N	0.024583	0.540003	0.339613
58	C	0.042452	0.522891	0.339535
59	N	0.024596	0.987905	0.339616
60	C	0.097776	0.55062	0.631807
61	C	0.07911	0.541232	0.673323
62	C	0.097661	0.550476	0.381605
63	C	0.07985	0.541676	0.587323
64	H	0.097583	0.550576	0.558758
65	H	0.063695	0.553331	0.584496
66	H	0.063731	0.513862	0.584429
67	C	0.081063	0.542128	0.426987
68	H	0.053112	0.528135	0.425734
69	H	0.089024	0.565817	0.44579
70	H	0.089053	0.526395	0.445715
71	N	0.024583	0.540003	0.672948
72	C	0.042452	0.522891	0.672867
73	N	0.024596	0.987905	0.672951
74	C	0.097776	0.55062	0.965142
75	C	0.07911	0.541232	0.006654
76	C	0.097661	0.550476	0.71494
77	C	0.07985	0.541676	0.920658
78	H	0.097583	0.550576	0.892089
79	H	0.063695	0.553331	0.917828
80	H	0.063731	0.513862	0.917761
81	C	0.081063	0.542128	0.760319
82	H	0.053112	0.528135	0.759066
83	H	0.089024	0.565817	0.779125
84	H	0.089053	0.526395	0.779047
85	N	0.207047	0.131613	0.006661
86	C	0.189317	0.09649	0.006866
87	N	0.207177	0.079237	0.006842
88	C	0.152816	0.078161	0.006784
89	C	0.134223	0.068884	0.299271
90	H	0.147613	0.075627	0.269497
91	C	0.134108	0.068731	0.047533
92	H	0.147388	0.075357	0.077425
93	N	0.207047	0.131613	0.339994
94	C	0.189317	0.09649	0.3402
95	N	0.207177	0.079237	0.340177
96	C	0.152816	0.078161	0.340119
97	C	0.134223	0.068884	0.632604
98	H	0.147613	0.075627	0.60283
99	C	0.134108	0.068731	0.380865
100	H	0.147388	0.075357	0.410758
101	N	0.207047	0.131613	0.673329
102	C	0.189317	0.09649	0.673535
103	N	0.207177	0.079237	0.673508
104	C	0.152816	0.078161	0.673451
105	C	0.134223	0.068884	0.965939
106	H	0.147613	0.075627	0.936165
107	C	0.134108	0.068731	0.7142
108	H	0.147388	0.075357	0.744093
109	N	0.207048	0.631613	0.006661
110	C	0.189318	0.596491	0.006866
111	N	0.207178	0.579237	0.006842
112	C	0.152817	0.578162	0.006784
113	C	0.134224	0.568885	0.299271
114	H	0.147613	0.575626	0.269497
115	C	0.134108	0.56873	0.047533
116	H	0.147389	0.575359	0.077425
117	N	0.207048	0.631613	0.339994
118	C	0.189318	0.596491	0.3402
119	N	0.207178	0.579237	0.340177
120	C	0.152817	0.578162	0.340119
121	C	0.134224	0.568885	0.632604
122	H	0.147613	0.575626	0.60283
123	C	0.134108	0.56873	0.380865
124	H	0.147389	0.575359	0.410758
125	N	0.207048	0.631613	0.673329
126	C	0.189318	0.596491	0.673535
127	N	0.207178	0.579237	0.673508
128	C	0.152817	0.578162	0.673451
129	C	0.134224	0.568885	0.965939
130	H	0.147613	0.575626	0.936165
131	C	0.134108	0.56873	0.7142
132	H	0.147389	0.575359	0.744093
133	C	0.242046	0.149333	0.006404
134	C	0.242183	0.096665	0.00656
135	N	0.258814	0.131382	0.00629
136	C	0.279015	0.08042	0.047892
137	C	0.263721	0.081916	0.006344
138	C	0.279367	0.081096	0.298091
139	C	0.26455	0.082466	0.092352
140	H	0.278154	0.079414	0.120918
141	H	0.237738	0.062159	0.094541
142	H	0.265937	0.107277	0.095909
143	C	0.266296	0.083726	0.252853
144	H	0.241213	0.081885	0.254277
145	H	0.263718	0.062919	0.231191
146	H	0.284348	0.108197	0.237187
147	C	0.263361	0.185489	0.339623
148	C	0.278887	0.202159	0.047119
149	H	0.268721	0.189463	0.076879
150	C	0.279318	0.20174	0.298771
151	H	0.269475	0.18883	0.269021
152	C	0.242046	0.149333	0.339734
153	C	0.242183	0.096665	0.339893
154	N	0.258814	0.131382	0.339623
155	C	0.279015	0.08042	0.381226
156	C	0.263721	0.081916	0.339677
157	C	0.279367	0.081096	0.631425
158	C	0.26455	0.082466	0.425687
159	H	0.278154	0.079414	0.454252
160	H	0.237738	0.062159	0.427875
161	H	0.265937	0.107277	0.429243
162	C	0.266296	0.083726	0.586188
163	H	0.241213	0.081885	0.58761
164	H	0.263718	0.062919	0.564525
165	H	0.284348	0.108197	0.570519
166	C	0.263361	0.185489	0.672958
167	C	0.278887	0.202159	0.380453
168	H	0.268721	0.189463	0.410214
169	C	0.279318	0.20174	0.632104
170	H	0.269475	0.18883	0.602353
171	C	0.242046	0.149333	0.673069
172	C	0.242183	0.096665	0.673228
173	N	0.258814	0.131382	0.672955
174	C	0.279015	0.08042	0.714562
175	C	0.263721	0.081916	0.673012
176	C	0.279367	0.081096	0.96476
177	C	0.26455	0.082466	0.759019
178	H	0.278154	0.079414	0.787587
179	H	0.237738	0.062159	0.76121
180	H	0.265937	0.107277	0.762578
181	C	0.266296	0.083726	0.91952
182	H	0.241213	0.081885	0.920945
183	H	0.263718	0.062919	0.89786
184	H	0.284348	0.108197	0.903854
185	C	0.263361	0.185489	0.006293
186	C	0.278887	0.202159	0.713788
187	H	0.268721	0.189463	0.743546
188	C	0.279318	0.20174	0.965439
189	H	0.269475	0.18883	0.935689
190	C	0.242047	0.649333	0.006404
191	C	0.242183	0.596665	0.00656
192	N	0.258814	0.631382	0.00629
193	C	0.279015	0.580421	0.047892
194	C	0.263723	0.581917	0.006344
195	C	0.279368	0.581096	0.298091
196	C	0.264552	0.582467	0.092352
197	H	0.278155	0.579415	0.120918
198	H	0.237738	0.562159	0.094541
199	H	0.265938	0.607277	0.095909
200	C	0.266296	0.583725	0.252853
201	H	0.241213	0.581884	0.254277
202	H	0.263719	0.562919	0.231191
203	H	0.284347	0.608196	0.237187
204	C	0.263362	0.68549	0.339623
205	C	0.278888	0.702158	0.047119
206	H	0.268722	0.689464	0.076879
207	C	0.279319	0.70174	0.298771
208	H	0.269475	0.68883	0.269021
209	C	0.242047	0.649333	0.339734
210	C	0.242183	0.596665	0.339893
211	N	0.258814	0.631382	0.339623
212	C	0.279015	0.580421	0.381226
213	C	0.263723	0.581917	0.339677
214	C	0.279368	0.581096	0.631425
215	C	0.264552	0.582467	0.425687
216	H	0.278155	0.579415	0.454252
217	H	0.237738	0.562159	0.427875
218	H	0.265938	0.607277	0.429243
219	C	0.266296	0.583725	0.586188
220	H	0.241213	0.581884	0.58761
221	H	0.263719	0.562919	0.564525
222	H	0.284347	0.608196	0.570519
223	C	0.263362	0.68549	0.672958
224	C	0.278888	0.702158	0.380453
225	H	0.268722	0.689464	0.410214
226	C	0.279319	0.70174	0.632104
227	H	0.269475	0.68883	0.602353
228	C	0.242047	0.649333	0.673069
229	C	0.242183	0.596665	0.673228
230	N	0.258814	0.631382	0.672955
231	C	0.279015	0.580421	0.714562
232	C	0.263723	0.581917	0.673012
233	C	0.279368	0.581096	0.96476
234	C	0.264552	0.582467	0.759019
235	H	0.278155	0.579415	0.787587
236	H	0.237738	0.562159	0.76121
237	H	0.265938	0.607277	0.762578
238	C	0.266296	0.583725	0.91952
239	H	0.241213	0.581884	0.920945
240	H	0.263719	0.562919	0.89786
241	H	0.284347	0.608196	0.903854
242	C	0.263362	0.68549	0.006293
243	C	0.278888	0.702158	0.713788
244	H	0.268722	0.689464	0.743546
245	C	0.279319	0.70174	0.965439
246	H	0.269475	0.68883	0.935689
247	C	0.489609	0.470032	0.006202
248	N	0.472475	0.487881	0.006283
249	C	0.489593	0.022866	0.006202
250	C	0.363163	0.095981	0.006435
251	N	0.380888	0.078714	0.006699
252	C	0.416014	0.096124	0.006869
253	N	0.433266	0.131241	0.006816
254	C	0.415832	0.148805	0.006545
255	N	0.381113	0.130702	0.0063
256	C	0.41649	0.270472	0.006431
257	N	0.433765	0.305469	0.006698
258	C	0.416356	0.323182	0.006866
259	N	0.381236	0.305305	0.006805
260	C	0.363664	0.270303	0.006529
261	N	0.381765	0.253691	0.006286
262	C	0.434347	0.077961	0.006786
263	C	0.443625	0.068651	0.299273
264	C	0.46188	0.050466	0.298474
265	C	0.471258	0.04118	0.339988
266	C	0.462012	0.050481	0.048272
267	H	0.436889	0.075302	0.269498
268	C	0.443765	0.068673	0.047534
269	H	0.437134	0.07532	0.077427
270	C	0.470823	0.041488	0.25399
271	H	0.46193	0.050323	0.225423
272	H	0.459159	0.013675	0.251157
273	H	0.49864	0.053183	0.251098
274	C	0.470352	0.042226	0.093652
275	H	0.484339	0.028269	0.092399
276	H	0.446658	0.026492	0.112452
277	H	0.486089	0.065951	0.112386
278	C	0.43452	0.359677	0.006785
279	C	0.443825	0.378271	0.299273
280	C	0.462004	0.414712	0.298476
281	C	0.471289	0.433378	0.339988
282	C	0.461993	0.414828	0.048273
283	H	0.437172	0.364881	0.269498
284	C	0.443806	0.378384	0.047534
285	H	0.437162	0.365107	0.077426
286	C	0.47098	0.432638	0.253992
287	H	0.462144	0.414908	0.225424
288	H	0.498793	0.448798	0.251156
289	H	0.459278	0.448746	0.251103
290	C	0.470248	0.431424	0.093653
291	H	0.484198	0.459371	0.092401
292	H	0.485989	0.423476	0.11245
293	H	0.446518	0.42342	0.11239
294	C	0.327014	0.081138	0.339711
295	C	0.310286	0.07995	0.047171
296	H	0.322963	0.082457	0.07694
297	C	0.310753	0.080879	0.298874
298	H	0.323659	0.083951	0.269118
299	C	0.431338	0.249177	0.339704
300	C	0.432515	0.233624	0.047148
301	C	0.432051	0.201886	0.047845
302	C	0.430559	0.185086	0.006296
303	C	0.431409	0.2016	0.298074
304	H	0.43	0.243779	0.076923
305	C	0.431624	0.233198	0.298861
306	H	0.428564	0.24304	0.269106
307	C	0.43001	0.185379	0.092308
308	H	0.433067	0.202034	0.120876
309	H	0.450317	0.17888	0.094492
310	H	0.405195	0.161949	0.09587
311	C	0.428784	0.185911	0.25283
312	H	0.430608	0.162661	0.254248
313	H	0.449605	0.204145	0.231183
314	H	0.404321	0.179499	0.237151
315	C	0.310625	0.233445	0.047844
316	C	0.327361	0.248751	0.006269
317	C	0.310919	0.233134	0.298
318	C	0.32714	0.247904	0.092306
319	H	0.310491	0.234279	0.120871
320	H	0.333623	0.274705	0.094516
321	H	0.350583	0.246546	0.095844
322	C	0.32663	0.246234	0.252776
323	H	0.349876	0.271319	0.254228
324	H	0.308399	0.248817	0.231123
325	H	0.333058	0.228201	0.237086
326	C	0.489609	0.470032	0.339535
327	N	0.472475	0.487881	0.339616
328	C	0.489593	0.022866	0.339532
329	C	0.363163	0.095981	0.339768
330	N	0.380888	0.078714	0.340035
331	C	0.416014	0.096124	0.340204
332	N	0.433266	0.131241	0.34015
333	C	0.415832	0.148805	0.33988
334	N	0.381113	0.130702	0.339633
335	C	0.41649	0.270472	0.339765
336	N	0.433765	0.305469	0.340031
337	C	0.416356	0.323182	0.3402
338	N	0.381236	0.305305	0.34014
339	C	0.363664	0.270303	0.339859
340	N	0.381765	0.253691	0.33962
341	C	0.434347	0.077961	0.340119
342	C	0.443625	0.068651	0.632607
343	C	0.46188	0.050466	0.631807
344	C	0.471258	0.04118	0.673323
345	C	0.462012	0.050481	0.381605
346	H	0.436889	0.075302	0.602833
347	C	0.443765	0.068673	0.380869
348	H	0.437134	0.07532	0.410761
349	C	0.470823	0.041488	0.587323
350	H	0.46193	0.050323	0.558758
351	H	0.459159	0.013675	0.58449
352	H	0.49864	0.053183	0.584432
353	C	0.470352	0.042226	0.426987
354	H	0.484339	0.028269	0.425734
355	H	0.446658	0.026492	0.445786
356	H	0.486089	0.065951	0.445719
357	C	0.43452	0.359677	0.340119
358	C	0.443825	0.378271	0.632607
359	C	0.462004	0.414712	0.63181
360	C	0.471289	0.433378	0.673323
361	C	0.461993	0.414828	0.381608
362	H	0.437172	0.364881	0.602833
363	C	0.443806	0.378384	0.380869
364	H	0.437162	0.365107	0.410761
365	C	0.47098	0.432638	0.587326
366	H	0.462144	0.414908	0.558758
367	H	0.498793	0.448798	0.58449
368	H	0.459278	0.448746	0.584436
369	C	0.470248	0.431424	0.426987
370	H	0.484198	0.459371	0.425734
371	H	0.485989	0.423476	0.445783
372	H	0.446518	0.42342	0.445725
373	C	0.327014	0.081138	0.673046
374	C	0.310286	0.07995	0.380504
375	H	0.322963	0.082457	0.410275
376	C	0.310753	0.080879	0.632209
377	H	0.323659	0.083951	0.602451
378	C	0.431338	0.249177	0.673036
379	C	0.432515	0.233624	0.380484
380	C	0.432051	0.201886	0.381179
381	C	0.430559	0.185086	0.33963
382	C	0.431409	0.2016	0.631408
383	H	0.43	0.243779	0.410258
384	C	0.431624	0.233198	0.632195
385	H	0.428564	0.24304	0.602441
386	C	0.43001	0.185379	0.425643
387	H	0.433067	0.202034	0.454212
388	H	0.450317	0.17888	0.427824
389	H	0.405195	0.161949	0.429206
390	C	0.428784	0.185911	0.586165
391	H	0.430608	0.162661	0.587583
392	H	0.449605	0.204145	0.564519
393	H	0.404321	0.179499	0.570486
394	C	0.310625	0.233445	0.381179
395	C	0.327361	0.248751	0.339603
396	C	0.310919	0.233134	0.631334
397	C	0.32714	0.247904	0.42564
398	H	0.310491	0.234279	0.454205
399	H	0.333623	0.274705	0.427851
400	H	0.350583	0.246546	0.429179
401	C	0.32663	0.246234	0.586111
402	H	0.349876	0.271319	0.587563
403	H	0.308399	0.248817	0.564458
404	H	0.333058	0.228201	0.570421
405	C	0.489609	0.470032	0.67287
406	N	0.472475	0.487881	0.672948
407	C	0.489593	0.022866	0.672867
408	C	0.363163	0.095981	0.673103
409	N	0.380888	0.078714	0.673367
410	C	0.416014	0.096124	0.673535
411	N	0.433266	0.131241	0.673485
412	C	0.415832	0.148805	0.673211
413	N	0.381113	0.130702	0.672968
414	C	0.41649	0.270472	0.673096
415	N	0.433765	0.305469	0.673367
416	C	0.416356	0.323182	0.673535
417	N	0.381236	0.305305	0.673471
418	C	0.363664	0.270303	0.673194
419	N	0.381765	0.253691	0.672951
420	C	0.434347	0.077961	0.673454
421	C	0.443625	0.068651	0.965942
422	C	0.46188	0.050466	0.965142
423	C	0.471258	0.04118	0.006654
424	C	0.462012	0.050481	0.71494
425	H	0.436889	0.075302	0.936165
426	C	0.443765	0.068673	0.714204
427	H	0.437134	0.07532	0.744096
428	C	0.470823	0.041488	0.920658
429	H	0.46193	0.050323	0.892093
430	H	0.459159	0.013675	0.917825
431	H	0.49864	0.053183	0.917767
432	C	0.470352	0.042226	0.760319
433	H	0.484339	0.028269	0.759066
434	H	0.446658	0.026492	0.779118
435	H	0.486089	0.065951	0.779054
436	C	0.43452	0.359677	0.673454
437	C	0.443825	0.378271	0.965939
438	C	0.462004	0.414712	0.965142
439	C	0.471289	0.433378	0.006655
440	C	0.461993	0.414828	0.71494
441	H	0.437172	0.364881	0.936165
442	C	0.443806	0.378384	0.7142
443	H	0.437162	0.365107	0.744093
444	C	0.47098	0.432638	0.920661
445	H	0.462144	0.414908	0.892093
446	H	0.498793	0.448798	0.917825
447	H	0.459278	0.448746	0.917771
448	C	0.470248	0.431424	0.760322
449	H	0.484198	0.459371	0.759069
450	H	0.485989	0.423476	0.779118
451	H	0.446518	0.42342	0.779057
452	C	0.327014	0.081138	0.006381
453	C	0.310286	0.07995	0.713839
454	H	0.322963	0.082457	0.743606
455	C	0.310753	0.080879	0.96554
456	H	0.323659	0.083951	0.935786
457	C	0.431338	0.249177	0.006371
458	C	0.432515	0.233624	0.713815
459	C	0.432051	0.201886	0.714514
460	C	0.430559	0.185086	0.672961
461	C	0.431409	0.2016	0.96474
462	H	0.43	0.243779	0.743589
463	C	0.431624	0.233198	0.965527
464	H	0.428564	0.24304	0.935773
465	C	0.43001	0.185379	0.758975
466	H	0.433067	0.202034	0.787543
467	H	0.450317	0.17888	0.76116
468	H	0.405195	0.161949	0.762537
469	C	0.428784	0.185911	0.9195
470	H	0.430608	0.162661	0.920915
471	H	0.449605	0.204145	0.89785
472	H	0.404321	0.179499	0.903817
473	C	0.310625	0.233445	0.714511
474	C	0.327361	0.248751	0.672934
475	C	0.310919	0.233134	0.964669
476	C	0.32714	0.247904	0.758975
477	H	0.310491	0.234279	0.78754
478	H	0.333623	0.274705	0.761183
479	H	0.350583	0.246546	0.76251
480	C	0.32663	0.246234	0.919442
481	H	0.349876	0.271319	0.920894
482	H	0.308399	0.248817	0.897789
483	H	0.333058	0.228201	0.903753
484	C	0.489608	0.970033	0.006202
485	N	0.472475	0.987881	0.006283
486	C	0.489594	0.522865	0.006202
487	C	0.363164	0.595982	0.006435
488	N	0.380888	0.578714	0.006699
489	C	0.416015	0.596124	0.006869
490	N	0.433267	0.631241	0.006816
491	C	0.415832	0.648805	0.006545
492	N	0.381113	0.630702	0.0063
493	C	0.416492	0.770473	0.006431
494	N	0.433764	0.805469	0.006698
495	C	0.416357	0.823182	0.006866
496	N	0.381236	0.805305	0.006805
497	C	0.363665	0.770303	0.006529
498	N	0.381767	0.753692	0.006286
499	C	0.434347	0.577962	0.006786
500	C	0.443625	0.568651	0.299273
501	C	0.461881	0.550466	0.298474
502	C	0.471259	0.541181	0.339988
503	C	0.462012	0.550481	0.048272
504	H	0.436889	0.575302	0.269498
505	C	0.443765	0.568674	0.047534
506	H	0.437134	0.57532	0.077427
507	C	0.470825	0.541489	0.25399
508	H	0.461929	0.550322	0.225423
509	H	0.459159	0.513675	0.251157
510	H	0.49864	0.553184	0.251098
511	C	0.470352	0.542226	0.093652
512	H	0.48434	0.528269	0.092399
513	H	0.446658	0.526492	0.112452
514	H	0.486089	0.56595	0.112386
515	C	0.434521	0.859678	0.006785
516	C	0.443825	0.878271	0.299273
517	C	0.462004	0.914713	0.298476
518	C	0.47129	0.933378	0.339988
519	C	0.461994	0.914828	0.048273
520	H	0.437173	0.864881	0.269498
521	C	0.443806	0.878384	0.047534
522	H	0.437162	0.865107	0.077426
523	C	0.47098	0.932638	0.253992
524	H	0.462144	0.914908	0.225424
525	H	0.498794	0.948798	0.251156
526	H	0.459278	0.948747	0.251103
527	C	0.470248	0.931424	0.093653
528	H	0.484199	0.959372	0.092401
529	H	0.485989	0.923477	0.11245
530	H	0.44652	0.92342	0.11239
531	C	0.327014	0.581137	0.339711
532	C	0.310288	0.579951	0.047171
533	H	0.322963	0.582457	0.07694
534	C	0.310753	0.580878	0.298874
535	H	0.32366	0.583951	0.269118
536	C	0.43134	0.749179	0.339704
537	C	0.432517	0.733625	0.047148
538	C	0.432051	0.701886	0.047845
539	C	0.430558	0.685085	0.006296
540	C	0.431409	0.701601	0.298074
541	H	0.430001	0.74378	0.076923
542	C	0.431625	0.733199	0.298861
543	H	0.428563	0.743041	0.269106
544	C	0.43001	0.68538	0.092308
545	H	0.433068	0.702035	0.120876
546	H	0.450318	0.67888	0.094492
547	H	0.405197	0.66195	0.09587
548	C	0.428785	0.685911	0.25283
549	H	0.430609	0.662662	0.254248
550	H	0.449606	0.704145	0.231183
551	H	0.40432	0.679499	0.237151
552	C	0.310625	0.733445	0.047844
553	C	0.327361	0.74875	0.006269
554	C	0.31092	0.733135	0.298
555	C	0.32714	0.747903	0.092306
556	H	0.310492	0.73428	0.120871
557	H	0.333624	0.774706	0.094516
558	H	0.350584	0.746548	0.095844
559	C	0.32663	0.746234	0.252776
560	H	0.349876	0.77132	0.254228
561	H	0.308399	0.748817	0.231123
562	H	0.333059	0.728201	0.237086
563	C	0.489608	0.970033	0.339535
564	N	0.472475	0.987881	0.339616
565	C	0.489594	0.522865	0.339532
566	C	0.363164	0.595982	0.339768
567	N	0.380888	0.578714	0.340035
568	C	0.416015	0.596124	0.340204
569	N	0.433267	0.631241	0.34015
570	C	0.415832	0.648805	0.33988
571	N	0.381113	0.630702	0.339633
572	C	0.416492	0.770473	0.339765
573	N	0.433764	0.805469	0.340031
574	C	0.416357	0.823182	0.3402
575	N	0.381236	0.805305	0.34014
576	C	0.363665	0.770303	0.339859
577	N	0.381767	0.753692	0.33962
578	C	0.434347	0.577962	0.340119
579	C	0.443625	0.568651	0.632607
580	C	0.461881	0.550466	0.631807
581	C	0.471259	0.541181	0.673323
582	C	0.462012	0.550481	0.381605
583	H	0.436889	0.575302	0.602833
584	C	0.443765	0.568674	0.380869
585	H	0.437134	0.57532	0.410761
586	C	0.470825	0.541489	0.587323
587	H	0.461929	0.550322	0.558758
588	H	0.459159	0.513675	0.58449
589	H	0.49864	0.553184	0.584432
590	C	0.470352	0.542226	0.426987
591	H	0.48434	0.528269	0.425734
592	H	0.446658	0.526492	0.445786
593	H	0.486089	0.56595	0.445719
594	C	0.434521	0.859678	0.340119
595	C	0.443825	0.878271	0.632607
596	C	0.462004	0.914713	0.63181
597	C	0.47129	0.933378	0.673323
598	C	0.461994	0.914828	0.381608
599	H	0.437173	0.864881	0.602833
600	C	0.443806	0.878384	0.380869
601	H	0.437162	0.865107	0.410761
602	C	0.47098	0.932638	0.587326
603	H	0.462144	0.914908	0.558758
604	H	0.498794	0.948798	0.58449
605	H	0.459278	0.948747	0.584436
606	C	0.470248	0.931424	0.426987
607	H	0.484199	0.959372	0.425734
608	H	0.485989	0.923477	0.445783
609	H	0.44652	0.92342	0.445725
610	C	0.327014	0.581137	0.673046
611	C	0.310288	0.579951	0.380504
612	H	0.322963	0.582457	0.410275
613	C	0.310753	0.580878	0.632209
614	H	0.32366	0.583951	0.602451
615	C	0.43134	0.749179	0.673036
616	C	0.432517	0.733625	0.380484
617	C	0.432051	0.701886	0.381179
618	C	0.430558	0.685085	0.33963
619	C	0.431409	0.701601	0.631408
620	H	0.430001	0.74378	0.410258
621	C	0.431625	0.733199	0.632195
622	H	0.428563	0.743041	0.602441
623	C	0.43001	0.68538	0.425643
624	H	0.433068	0.702035	0.454212
625	H	0.450318	0.67888	0.427824
626	H	0.405197	0.66195	0.429206
627	C	0.428785	0.685911	0.586165
628	H	0.430609	0.662662	0.587583
629	H	0.449606	0.704145	0.564519
630	H	0.40432	0.679499	0.570486
631	C	0.310625	0.733445	0.381179
632	C	0.327361	0.74875	0.339603
633	C	0.31092	0.733135	0.631334
634	C	0.32714	0.747903	0.42564
635	H	0.310492	0.73428	0.454205
636	H	0.333624	0.774706	0.427851
637	H	0.350584	0.746548	0.429179
638	C	0.32663	0.746234	0.586111
639	H	0.349876	0.77132	0.587563
640	H	0.308399	0.748817	0.564458
641	H	0.333059	0.728201	0.570421
642	C	0.489608	0.970033	0.67287
643	N	0.472475	0.987881	0.672948
644	C	0.489594	0.522865	0.672867
645	C	0.363164	0.595982	0.673103
646	N	0.380888	0.578714	0.673367
647	C	0.416015	0.596124	0.673535
648	N	0.433267	0.631241	0.673485
649	C	0.415832	0.648805	0.673211
650	N	0.381113	0.630702	0.672968
651	C	0.416492	0.770473	0.673096
652	N	0.433764	0.805469	0.673367
653	C	0.416357	0.823182	0.673535
654	N	0.381236	0.805305	0.673471
655	C	0.363665	0.770303	0.673194
656	N	0.381767	0.753692	0.672951
657	C	0.434347	0.577962	0.673454
658	C	0.443625	0.568651	0.965942
659	C	0.461881	0.550466	0.965142
660	C	0.471259	0.541181	0.006654
661	C	0.462012	0.550481	0.71494
662	H	0.436889	0.575302	0.936165
663	C	0.443765	0.568674	0.714204
664	H	0.437134	0.57532	0.744096
665	C	0.470825	0.541489	0.920658
666	H	0.461929	0.550322	0.892093
667	H	0.459159	0.513675	0.917825
668	H	0.49864	0.553184	0.917767
669	C	0.470352	0.542226	0.760319
670	H	0.48434	0.528269	0.759066
671	H	0.446658	0.526492	0.779118
672	H	0.486089	0.56595	0.779054
673	C	0.434521	0.859678	0.673454
674	C	0.443825	0.878271	0.965939
675	C	0.462004	0.914713	0.965142
676	C	0.47129	0.933378	0.006655
677	C	0.461994	0.914828	0.71494
678	H	0.437173	0.864881	0.936165
679	C	0.443806	0.878384	0.7142
680	H	0.437162	0.865107	0.744093
681	C	0.47098	0.932638	0.920661
682	H	0.462144	0.914908	0.892093
683	H	0.498794	0.948798	0.917825
684	H	0.459278	0.948747	0.917771
685	C	0.470248	0.931424	0.760322
686	H	0.484199	0.959372	0.759069
687	H	0.485989	0.923477	0.779118
688	H	0.44652	0.92342	0.779057
689	C	0.327014	0.581137	0.006381
690	C	0.310288	0.579951	0.713839
691	H	0.322963	0.582457	0.743606
692	C	0.310753	0.580878	0.96554
693	H	0.32366	0.583951	0.935786
694	C	0.43134	0.749179	0.006371
695	C	0.432517	0.733625	0.713815
696	C	0.432051	0.701886	0.714514
697	C	0.430558	0.685085	0.672961
698	C	0.431409	0.701601	0.96474
699	H	0.430001	0.74378	0.743589
700	C	0.431625	0.733199	0.965527
701	H	0.428563	0.743041	0.935773
702	C	0.43001	0.68538	0.758975
703	H	0.433068	0.702035	0.787543
704	H	0.450318	0.67888	0.76116
705	H	0.405197	0.66195	0.762537
706	C	0.428785	0.685911	0.9195
707	H	0.430609	0.662662	0.920915
708	H	0.449606	0.704145	0.89785
709	H	0.40432	0.679499	0.903817
710	C	0.310625	0.733445	0.714511
711	C	0.327361	0.74875	0.672934
712	C	0.31092	0.733135	0.964669
713	C	0.32714	0.747903	0.758975
714	H	0.310492	0.73428	0.78754
715	H	0.333624	0.774706	0.761183
716	H	0.350584	0.746548	0.76251
717	C	0.32663	0.746234	0.919442
718	H	0.349876	0.77132	0.920894
719	H	0.308399	0.748817	0.897789
720	H	0.333059	0.728201	0.903753
721	C	0.989606	0.470032	0.006202
722	N	0.972475	0.487881	0.006283
723	C	0.989593	0.022866	0.006202
724	N	0.524582	0.040002	0.00628
725	C	0.542451	0.02289	0.006202
726	N	0.524597	0.487904	0.006283
727	C	0.742045	0.149333	0.006404
728	N	0.707047	0.131613	0.006661
729	C	0.689318	0.09649	0.006866
730	N	0.707176	0.079237	0.006842
731	C	0.742183	0.096665	0.00656
732	N	0.758814	0.131382	0.00629
733	C	0.863163	0.095981	0.006435
734	N	0.880888	0.078714	0.006699
735	C	0.916014	0.096124	0.006869
736	N	0.933266	0.131241	0.006816
737	C	0.915832	0.148805	0.006545
738	N	0.881113	0.130702	0.0063
739	C	0.91649	0.270472	0.006431
740	N	0.933765	0.305469	0.006698
741	C	0.916356	0.323182	0.006866
742	N	0.881234	0.305305	0.006805
743	C	0.863664	0.270303	0.006529
744	N	0.881765	0.253691	0.006286
745	C	0.652816	0.078161	0.006784
746	C	0.634223	0.068884	0.299271
747	C	0.597776	0.050619	0.298474
748	C	0.579108	0.041231	0.339988
749	C	0.59766	0.050476	0.048272
750	H	0.647614	0.075627	0.269497
751	C	0.634107	0.068731	0.047533
752	H	0.647388	0.075357	0.077425
753	C	0.57985	0.041675	0.25399
754	H	0.597581	0.050576	0.225423
755	H	0.563693	0.053331	0.251161
756	H	0.563731	0.013862	0.251094
757	C	0.581062	0.042128	0.093652
758	H	0.553112	0.028136	0.092399
759	H	0.589022	0.065817	0.112457
760	H	0.589054	0.026395	0.112381
761	C	0.934347	0.077961	0.006786
762	C	0.943625	0.068651	0.299273
763	C	0.96188	0.050466	0.298474
764	C	0.971258	0.04118	0.339988
765	C	0.962012	0.050481	0.048272
766	H	0.936887	0.075302	0.269498
767	C	0.943765	0.068673	0.047534
768	H	0.937134	0.07532	0.077427
769	C	0.970823	0.041488	0.25399
770	H	0.96193	0.050323	0.225423
771	H	0.959159	0.013675	0.251157
772	H	0.998637	0.053183	0.251098
773	C	0.970352	0.042226	0.093652
774	H	0.984339	0.028269	0.092399
775	H	0.946658	0.026492	0.112452
776	H	0.986089	0.065951	0.112386
777	C	0.93452	0.359677	0.006785
778	C	0.943825	0.378271	0.299273
779	C	0.962004	0.414712	0.298476
780	C	0.971289	0.433378	0.339988
781	C	0.961993	0.414828	0.048273
782	H	0.937172	0.364881	0.269498
783	C	0.943806	0.378384	0.047534
784	H	0.937162	0.365107	0.077426
785	C	0.97098	0.432638	0.253992
786	H	0.962144	0.414908	0.225424
787	H	0.998793	0.448798	0.251156
788	H	0.959278	0.448746	0.251103
789	C	0.970248	0.431424	0.093653
790	H	0.984198	0.459371	0.092401
791	H	0.985989	0.423476	0.11245
792	H	0.946518	0.42342	0.11239
793	C	0.827014	0.081138	0.339711
794	C	0.810286	0.07995	0.047171
795	C	0.779015	0.08042	0.047892
796	C	0.763721	0.081916	0.006344
797	C	0.779367	0.081096	0.298091
798	H	0.822963	0.082457	0.07694
799	C	0.810753	0.080879	0.298874
800	H	0.823659	0.083951	0.269118
801	C	0.76455	0.082466	0.092352
802	H	0.778154	0.079414	0.120918
803	H	0.737737	0.062159	0.094541
804	H	0.765938	0.107277	0.095909
805	C	0.766296	0.083726	0.252853
806	H	0.741212	0.081885	0.254277
807	H	0.763718	0.062919	0.231191
808	H	0.784348	0.108197	0.237187
809	C	0.931338	0.249177	0.339704
810	C	0.932515	0.233624	0.047148
811	C	0.932051	0.201886	0.047845
812	C	0.930559	0.185086	0.006296
813	C	0.931407	0.2016	0.298074
814	H	0.93	0.243779	0.076923
815	C	0.931624	0.233198	0.298861
816	H	0.928562	0.24304	0.269106
817	C	0.93001	0.185379	0.092308
818	H	0.933067	0.202034	0.120876
819	H	0.950317	0.17888	0.094492
820	H	0.905195	0.161949	0.09587
821	C	0.928784	0.185911	0.25283
822	H	0.930608	0.162661	0.254248
823	H	0.949605	0.204145	0.231183
824	H	0.904319	0.179499	0.237151
825	C	0.763361	0.185489	0.339623
826	C	0.778886	0.202159	0.047119
827	C	0.810625	0.233445	0.047844
828	C	0.82736	0.248751	0.006269
829	C	0.81092	0.233134	0.298
830	H	0.768721	0.189463	0.076879
831	C	0.779319	0.20174	0.298771
832	H	0.769474	0.18883	0.269021
833	C	0.827141	0.247904	0.092306
834	H	0.81049	0.234279	0.120871
835	H	0.833624	0.274705	0.094516
836	H	0.850583	0.246546	0.095844
837	C	0.82663	0.246234	0.252776
838	H	0.849876	0.271319	0.254228
839	H	0.808398	0.248817	0.231123
840	H	0.833058	0.228201	0.237086
841	C	0.989606	0.470032	0.339535
842	N	0.972475	0.487881	0.339616
843	C	0.989593	0.022866	0.339532
844	N	0.524582	0.040002	0.339613
845	C	0.542451	0.02289	0.339535
846	N	0.524597	0.487904	0.339616
847	C	0.742045	0.149333	0.339734
848	N	0.707047	0.131613	0.339994
849	C	0.689318	0.09649	0.3402
850	N	0.707176	0.079237	0.340177
851	C	0.742183	0.096665	0.339893
852	N	0.758814	0.131382	0.339623
853	C	0.863163	0.095981	0.339768
854	N	0.880888	0.078714	0.340035
855	C	0.916014	0.096124	0.340204
856	N	0.933266	0.131241	0.34015
857	C	0.915832	0.148805	0.33988
858	N	0.881113	0.130702	0.339633
859	C	0.91649	0.270472	0.339765
860	N	0.933765	0.305469	0.340031
861	C	0.916356	0.323182	0.3402
862	N	0.881234	0.305305	0.34014
863	C	0.863664	0.270303	0.339859
864	N	0.881765	0.253691	0.33962
865	C	0.652816	0.078161	0.340119
866	C	0.634223	0.068884	0.632604
867	C	0.597776	0.050619	0.631807
868	C	0.579108	0.041231	0.673323
869	C	0.59766	0.050476	0.381605
870	H	0.647614	0.075627	0.60283
871	C	0.634107	0.068731	0.380865
872	H	0.647388	0.075357	0.410758
873	C	0.57985	0.041675	0.587323
874	H	0.597581	0.050576	0.558758
875	H	0.563693	0.053331	0.584496
876	H	0.563731	0.013862	0.584429
877	C	0.581062	0.042128	0.426987
878	H	0.553112	0.028136	0.425734
879	H	0.589022	0.065817	0.44579
880	H	0.589054	0.026395	0.445715
881	C	0.934347	0.077961	0.340119
882	C	0.943625	0.068651	0.632607
883	C	0.96188	0.050466	0.631807
884	C	0.971258	0.04118	0.673323
885	C	0.962012	0.050481	0.381605
886	H	0.936887	0.075302	0.602833
887	C	0.943765	0.068673	0.380869
888	H	0.937134	0.07532	0.410761
889	C	0.970823	0.041488	0.587323
890	H	0.96193	0.050323	0.558758
891	H	0.959159	0.013675	0.58449
892	H	0.998637	0.053183	0.584432
893	C	0.970352	0.042226	0.426987
894	H	0.984339	0.028269	0.425734
895	H	0.946658	0.026492	0.445786
896	H	0.986089	0.065951	0.445719
897	C	0.93452	0.359677	0.340119
898	C	0.943825	0.378271	0.632607
899	C	0.962004	0.414712	0.63181
900	C	0.971289	0.433378	0.673323
901	C	0.961993	0.414828	0.381608
902	H	0.937172	0.364881	0.602833
903	C	0.943806	0.378384	0.380869
904	H	0.937162	0.365107	0.410761
905	C	0.97098	0.432638	0.587326
906	H	0.962144	0.414908	0.558758
907	H	0.998793	0.448798	0.58449
908	H	0.959278	0.448746	0.584436
909	C	0.970248	0.431424	0.426987
910	H	0.984198	0.459371	0.425734
911	H	0.985989	0.423476	0.445783
912	H	0.946518	0.42342	0.445725
913	C	0.827014	0.081138	0.673046
914	C	0.810286	0.07995	0.380504
915	C	0.779015	0.08042	0.381226
916	C	0.763721	0.081916	0.339677
917	C	0.779367	0.081096	0.631425
918	H	0.822963	0.082457	0.410275
919	C	0.810753	0.080879	0.632209
920	H	0.823659	0.083951	0.602451
921	C	0.76455	0.082466	0.425687
922	H	0.778154	0.079414	0.454252
923	H	0.737737	0.062159	0.427875
924	H	0.765938	0.107277	0.429243
925	C	0.766296	0.083726	0.586188
926	H	0.741212	0.081885	0.58761
927	H	0.763718	0.062919	0.564525
928	H	0.784348	0.108197	0.570519
929	C	0.931338	0.249177	0.673036
930	C	0.932515	0.233624	0.380484
931	C	0.932051	0.201886	0.381179
932	C	0.930559	0.185086	0.33963
933	C	0.931407	0.2016	0.631408
934	H	0.93	0.243779	0.410258
935	C	0.931624	0.233198	0.632195
936	H	0.928562	0.24304	0.602441
937	C	0.93001	0.185379	0.425643
938	H	0.933067	0.202034	0.454212
939	H	0.950317	0.17888	0.427824
940	H	0.905195	0.161949	0.429206
941	C	0.928784	0.185911	0.586165
942	H	0.930608	0.162661	0.587583
943	H	0.949605	0.204145	0.564519
944	H	0.904319	0.179499	0.570486
945	C	0.763361	0.185489	0.672958
946	C	0.778886	0.202159	0.380453
947	C	0.810625	0.233445	0.381179
948	C	0.82736	0.248751	0.339603
949	C	0.81092	0.233134	0.631334
950	H	0.768721	0.189463	0.410214
951	C	0.779319	0.20174	0.632104
952	H	0.769474	0.18883	0.602353
953	C	0.827141	0.247904	0.42564
954	H	0.81049	0.234279	0.454205
955	H	0.833624	0.274705	0.427851
956	H	0.850583	0.246546	0.429179
957	C	0.82663	0.246234	0.586111
958	H	0.849876	0.271319	0.587563
959	H	0.808398	0.248817	0.564458
960	H	0.833058	0.228201	0.570421
961	C	0.989606	0.470032	0.67287
962	N	0.972475	0.487881	0.672948
963	C	0.989593	0.022866	0.672867
964	N	0.524582	0.040002	0.672948
965	C	0.542451	0.02289	0.672867
966	N	0.524597	0.487904	0.672951
967	C	0.742045	0.149333	0.673069
968	N	0.707047	0.131613	0.673329
969	C	0.689318	0.09649	0.673535
970	N	0.707176	0.079237	0.673508
971	C	0.742183	0.096665	0.673228
972	N	0.758814	0.131382	0.672955
973	C	0.863163	0.095981	0.673103
974	N	0.880888	0.078714	0.673367
975	C	0.916014	0.096124	0.673535
976	N	0.933266	0.131241	0.673485
977	C	0.915832	0.148805	0.673211
978	N	0.881113	0.130702	0.672968
979	C	0.91649	0.270472	0.673096
980	N	0.933765	0.305469	0.673367
981	C	0.916356	0.323182	0.673535
982	N	0.881234	0.305305	0.673471
983	C	0.863664	0.270303	0.673194
984	N	0.881765	0.253691	0.672951
985	C	0.652816	0.078161	0.673451
986	C	0.634223	0.068884	0.965939
987	C	0.597776	0.050619	0.965142
988	C	0.579108	0.041231	0.006654
989	C	0.59766	0.050476	0.71494
990	H	0.647614	0.075627	0.936165
991	C	0.634107	0.068731	0.7142
992	H	0.647388	0.075357	0.744093
993	C	0.57985	0.041675	0.920658
994	H	0.597581	0.050576	0.892089
995	H	0.563693	0.053331	0.917828
996	H	0.563731	0.013862	0.917761
997	C	0.581062	0.042128	0.760319
998	H	0.553112	0.028136	0.759066
999	H	0.589022	0.065817	0.779125
1000	H	0.589054	0.026395	0.779047
1001	C	0.934347	0.077961	0.673454
1002	C	0.943625	0.068651	0.965942
1003	C	0.96188	0.050466	0.965142
1004	C	0.971258	0.04118	0.006654
1005	C	0.962012	0.050481	0.71494
1006	H	0.936887	0.075302	0.936165
1007	C	0.943765	0.068673	0.714204
1008	H	0.937134	0.07532	0.744096
1009	C	0.970823	0.041488	0.920658
1010	H	0.96193	0.050323	0.892093
1011	H	0.959159	0.013675	0.917825
1012	H	0.998637	0.053183	0.917767
1013	C	0.970352	0.042226	0.760319
1014	H	0.984339	0.028269	0.759066
1015	H	0.946658	0.026492	0.779118
1016	H	0.986089	0.065951	0.779054
1017	C	0.93452	0.359677	0.673454
1018	C	0.943825	0.378271	0.965939
1019	C	0.962004	0.414712	0.965142
1020	C	0.971289	0.433378	0.006655
1021	C	0.961993	0.414828	0.71494
1022	H	0.937172	0.364881	0.936165
1023	C	0.943806	0.378384	0.7142
1024	H	0.937162	0.365107	0.744093
1025	C	0.97098	0.432638	0.920661
1026	H	0.962144	0.414908	0.892093
1027	H	0.998793	0.448798	0.917825
1028	H	0.959278	0.448746	0.917771
1029	C	0.970248	0.431424	0.760322
1030	H	0.984198	0.459371	0.759069
1031	H	0.985989	0.423476	0.779118
1032	H	0.946518	0.42342	0.779057
1033	C	0.827014	0.081138	0.006381
1034	C	0.810286	0.07995	0.713839
1035	C	0.779015	0.08042	0.714562
1036	C	0.763721	0.081916	0.673012
1037	C	0.779367	0.081096	0.96476
1038	H	0.822963	0.082457	0.743606
1039	C	0.810753	0.080879	0.96554
1040	H	0.823659	0.083951	0.935786
1041	C	0.76455	0.082466	0.759019
1042	H	0.778154	0.079414	0.787587
1043	H	0.737737	0.062159	0.76121
1044	H	0.765938	0.107277	0.762578
1045	C	0.766296	0.083726	0.91952
1046	H	0.741212	0.081885	0.920945
1047	H	0.763718	0.062919	0.89786
1048	H	0.784348	0.108197	0.903854
1049	C	0.931338	0.249177	0.006371
1050	C	0.932515	0.233624	0.713815
1051	C	0.932051	0.201886	0.714514
1052	C	0.930559	0.185086	0.672961
1053	C	0.931407	0.2016	0.96474
1054	H	0.93	0.243779	0.743589
1055	C	0.931624	0.233198	0.965527
1056	H	0.928562	0.24304	0.935773
1057	C	0.93001	0.185379	0.758975
1058	H	0.933067	0.202034	0.787543
1059	H	0.950317	0.17888	0.76116
1060	H	0.905195	0.161949	0.762537
1061	C	0.928784	0.185911	0.9195
1062	H	0.930608	0.162661	0.920915
1063	H	0.949605	0.204145	0.89785
1064	H	0.904319	0.179499	0.903817
1065	C	0.763361	0.185489	0.006293
1066	C	0.778886	0.202159	0.713788
1067	C	0.810625	0.233445	0.714511
1068	C	0.82736	0.248751	0.672934
1069	C	0.81092	0.233134	0.964669
1070	H	0.768721	0.189463	0.743546
1071	C	0.779319	0.20174	0.965439
1072	H	0.769474	0.18883	0.935689
1073	C	0.827141	0.247904	0.758975
1074	H	0.81049	0.234279	0.78754
1075	H	0.833624	0.274705	0.761183
1076	H	0.850583	0.246546	0.76251
1077	C	0.82663	0.246234	0.919442
1078	H	0.849876	0.271319	0.920894
1079	H	0.808398	0.248817	0.897789
1080	H	0.833058	0.228201	0.903753
1081	C	0.989608	0.970033	0.006202
1082	N	0.972474	0.987881	0.006283
1083	C	0.989594	0.522865	0.006202
1084	N	0.524583	0.540003	0.00628
1085	C	0.542453	0.522891	0.006202
1086	N	0.524597	0.987905	0.006283
1087	C	0.742046	0.649333	0.006404
1088	N	0.707048	0.631613	0.006661
1089	C	0.689317	0.596491	0.006866
1090	N	0.707178	0.579237	0.006842
1091	C	0.742184	0.596665	0.00656
1092	N	0.758813	0.631382	0.00629
1093	C	0.863165	0.595982	0.006435
1094	N	0.880887	0.578714	0.006699
1095	C	0.916015	0.596124	0.006869
1096	N	0.933267	0.631241	0.006816
1097	C	0.915831	0.648805	0.006545
1098	N	0.881112	0.630702	0.0063
1099	C	0.916492	0.770473	0.006431
1100	N	0.933764	0.805469	0.006698
1101	C	0.916357	0.823182	0.006866
1102	N	0.881235	0.805305	0.006805
1103	C	0.863665	0.770303	0.006529
1104	N	0.881767	0.753692	0.006286
1105	C	0.652818	0.578162	0.006784
1106	C	0.634223	0.568885	0.299271
1107	C	0.597775	0.55062	0.298474
1108	C	0.579109	0.541232	0.339988
1109	C	0.597661	0.550476	0.048272
1110	H	0.647612	0.575626	0.269497
1111	C	0.634108	0.56873	0.047533
1112	H	0.647389	0.575359	0.077425
1113	C	0.57985	0.541676	0.25399
1114	H	0.597582	0.550576	0.225423
1115	H	0.563695	0.553331	0.251161
1116	H	0.563729	0.513862	0.251094
1117	C	0.581063	0.542128	0.093652
1118	H	0.553113	0.528135	0.092399
1119	H	0.589024	0.565817	0.112457
1120	H	0.589053	0.526395	0.112381
1121	C	0.934346	0.577962	0.006786
1122	C	0.943626	0.568651	0.299273
1123	C	0.961881	0.550466	0.298474
1124	C	0.97126	0.541181	0.339988
1125	C	0.962013	0.550481	0.048272
1126	H	0.936888	0.575302	0.269498
1127	C	0.943764	0.568674	0.047534
1128	H	0.937135	0.57532	0.077427
1129	C	0.970825	0.541489	0.25399
1130	H	0.961929	0.550322	0.225423
1131	H	0.95916	0.513675	0.251157
1132	H	0.998639	0.553184	0.251098
1133	C	0.970351	0.542226	0.093652
1134	H	0.98434	0.528269	0.092399
1135	H	0.946656	0.526492	0.112452
1136	H	0.986088	0.56595	0.112386
1137	C	0.934521	0.859678	0.006785
1138	C	0.943824	0.878271	0.299273
1139	C	0.962003	0.914713	0.298476
1140	C	0.971291	0.933378	0.339988
1141	C	0.961994	0.914828	0.048273
1142	H	0.937173	0.864881	0.269498
1143	C	0.943807	0.878384	0.047534
1144	H	0.937161	0.865107	0.077426
1145	C	0.970979	0.932638	0.253992
1146	H	0.962143	0.914908	0.225424
1147	H	0.998794	0.948798	0.251156
1148	H	0.959277	0.948747	0.251103
1149	C	0.970247	0.931424	0.093653
1150	H	0.984199	0.959372	0.092401
1151	H	0.985988	0.923477	0.11245
1152	H	0.946519	0.92342	0.11239
1153	C	0.827014	0.581137	0.339711
1154	C	0.810288	0.579951	0.047171
1155	C	0.779014	0.580421	0.047892
1156	C	0.763723	0.581917	0.006344
1157	C	0.779368	0.581096	0.298091
1158	H	0.822963	0.582457	0.07694
1159	C	0.810751	0.580878	0.298874
1160	H	0.82366	0.583951	0.269118
1161	C	0.764551	0.582467	0.092352
1162	H	0.778155	0.579415	0.120918
1163	H	0.737738	0.562159	0.094541
1164	H	0.765937	0.607277	0.095909
1165	C	0.766297	0.583725	0.252853
1166	H	0.741213	0.581884	0.254277
1167	H	0.763719	0.562919	0.231191
1168	H	0.784346	0.608196	0.237187
1169	C	0.93134	0.749179	0.339704
1170	C	0.932517	0.733625	0.047148
1171	C	0.932051	0.701886	0.047845
1172	C	0.930557	0.685085	0.006296
1173	C	0.931409	0.701601	0.298074
1174	H	0.930002	0.74378	0.076923
1175	C	0.931625	0.733199	0.298861
1176	H	0.928563	0.743041	0.269106
1177	C	0.930009	0.68538	0.092308
1178	H	0.933069	0.702035	0.120876
1179	H	0.950318	0.67888	0.094492
1180	H	0.905197	0.66195	0.09587
1181	C	0.928785	0.685911	0.25283
1182	H	0.93061	0.662662	0.254248
1183	H	0.949606	0.704145	0.231183
1184	H	0.90432	0.679499	0.237151
1185	C	0.763362	0.68549	0.339623
1186	C	0.778887	0.702158	0.047119
1187	C	0.810626	0.733445	0.047844
1188	C	0.827361	0.74875	0.006269
1189	C	0.81092	0.733135	0.298
1190	H	0.768723	0.689464	0.076879
1191	C	0.779318	0.70174	0.298771
1192	H	0.769475	0.68883	0.269021
1193	C	0.827139	0.747903	0.092306
1194	H	0.810492	0.73428	0.120871
1195	H	0.833623	0.774706	0.094516
1196	H	0.850584	0.746548	0.095844
1197	C	0.826629	0.746234	0.252776
1198	H	0.849877	0.77132	0.254228
1199	H	0.8084	0.748817	0.231123
1200	H	0.833059	0.728201	0.237086
1201	C	0.989608	0.970033	0.339535
1202	N	0.972474	0.987881	0.339616
1203	C	0.989594	0.522865	0.339532
1204	N	0.524583	0.540003	0.339613
1205	C	0.542453	0.522891	0.339535
1206	N	0.524597	0.987905	0.339616
1207	C	0.742046	0.649333	0.339734
1208	N	0.707048	0.631613	0.339994
1209	C	0.689317	0.596491	0.3402
1210	N	0.707178	0.579237	0.340177
1211	C	0.742184	0.596665	0.339893
1212	N	0.758813	0.631382	0.339623
1213	C	0.863165	0.595982	0.339768
1214	N	0.880887	0.578714	0.340035
1215	C	0.916015	0.596124	0.340204
1216	N	0.933267	0.631241	0.34015
1217	C	0.915831	0.648805	0.33988
1218	N	0.881112	0.630702	0.339633
1219	C	0.916492	0.770473	0.339765
1220	N	0.933764	0.805469	0.340031
1221	C	0.916357	0.823182	0.3402
1222	N	0.881235	0.805305	0.34014
1223	C	0.863665	0.770303	0.339859
1224	N	0.881767	0.753692	0.33962
1225	C	0.652818	0.578162	0.340119
1226	C	0.634223	0.568885	0.632604
1227	C	0.597775	0.55062	0.631807
1228	C	0.579109	0.541232	0.673323
1229	C	0.597661	0.550476	0.381605
1230	H	0.647612	0.575626	0.60283
1231	C	0.634108	0.56873	0.380865
1232	H	0.647389	0.575359	0.410758
1233	C	0.57985	0.541676	0.587323
1234	H	0.597582	0.550576	0.558758
1235	H	0.563695	0.553331	0.584496
1236	H	0.563729	0.513862	0.584429
1237	C	0.581063	0.542128	0.426987
1238	H	0.553113	0.528135	0.425734
1239	H	0.589024	0.565817	0.44579
1240	H	0.589053	0.526395	0.445715
1241	C	0.934346	0.577962	0.340119
1242	C	0.943626	0.568651	0.632607
1243	C	0.961881	0.550466	0.631807
1244	C	0.97126	0.541181	0.673323
1245	C	0.962013	0.550481	0.381605
1246	H	0.936888	0.575302	0.602833
1247	C	0.943764	0.568674	0.380869
1248	H	0.937135	0.57532	0.410761
1249	C	0.970825	0.541489	0.587323
1250	H	0.961929	0.550322	0.558758
1251	H	0.95916	0.513675	0.58449
1252	H	0.998639	0.553184	0.584432
1253	C	0.970351	0.542226	0.426987
1254	H	0.98434	0.528269	0.425734
1255	H	0.946656	0.526492	0.445786
1256	H	0.986088	0.56595	0.445719
1257	C	0.934521	0.859678	0.340119
1258	C	0.943824	0.878271	0.632607
1259	C	0.962003	0.914713	0.63181
1260	C	0.971291	0.933378	0.673323
1261	C	0.961994	0.914828	0.381608
1262	H	0.937173	0.864881	0.602833
1263	C	0.943807	0.878384	0.380869
1264	H	0.937161	0.865107	0.410761
1265	C	0.970979	0.932638	0.587326
1266	H	0.962143	0.914908	0.558758
1267	H	0.998794	0.948798	0.58449
1268	H	0.959277	0.948747	0.584436
1269	C	0.970247	0.931424	0.426987
1270	H	0.984199	0.959372	0.425734
1271	H	0.985988	0.923477	0.445783
1272	H	0.946519	0.92342	0.445725
1273	C	0.827014	0.581137	0.673046
1274	C	0.810288	0.579951	0.380504
1275	C	0.779014	0.580421	0.381226
1276	C	0.763723	0.581917	0.339677
1277	C	0.779368	0.581096	0.631425
1278	H	0.822963	0.582457	0.410275
1279	C	0.810751	0.580878	0.632209
1280	H	0.82366	0.583951	0.602451
1281	C	0.764551	0.582467	0.425687
1282	H	0.778155	0.579415	0.454252
1283	H	0.737738	0.562159	0.427875
1284	H	0.765937	0.607277	0.429243
1285	C	0.766297	0.583725	0.586188
1286	H	0.741213	0.581884	0.58761
1287	H	0.763719	0.562919	0.564525
1288	H	0.784346	0.608196	0.570519
1289	C	0.93134	0.749179	0.673036
1290	C	0.932517	0.733625	0.380484
1291	C	0.932051	0.701886	0.381179
1292	C	0.930557	0.685085	0.33963
1293	C	0.931409	0.701601	0.631408
1294	H	0.930002	0.74378	0.410258
1295	C	0.931625	0.733199	0.632195
1296	H	0.928563	0.743041	0.602441
1297	C	0.930009	0.68538	0.425643
1298	H	0.933069	0.702035	0.454212
1299	H	0.950318	0.67888	0.427824
1300	H	0.905197	0.66195	0.429206
1301	C	0.928785	0.685911	0.586165
1302	H	0.93061	0.662662	0.587583
1303	H	0.949606	0.704145	0.564519
1304	H	0.90432	0.679499	0.570486
1305	C	0.763362	0.68549	0.672958
1306	C	0.778887	0.702158	0.380453
1307	C	0.810626	0.733445	0.381179
1308	C	0.827361	0.74875	0.339603
1309	C	0.81092	0.733135	0.631334
1310	H	0.768723	0.689464	0.410214
1311	C	0.779318	0.70174	0.632104
1312	H	0.769475	0.68883	0.602353
1313	C	0.827139	0.747903	0.42564
1314	H	0.810492	0.73428	0.454205
1315	H	0.833623	0.774706	0.427851
1316	H	0.850584	0.746548	0.429179
1317	C	0.826629	0.746234	0.586111
1318	H	0.849877	0.77132	0.587563
1319	H	0.8084	0.748817	0.564458
1320	H	0.833059	0.728201	0.570421
1321	C	0.989608	0.970033	0.67287
1322	N	0.972474	0.987881	0.672948
1323	C	0.989594	0.522865	0.672867
1324	N	0.524583	0.540003	0.672948
1325	C	0.542453	0.522891	0.672867
1326	N	0.524597	0.987905	0.672951
1327	C	0.742046	0.649333	0.673069
1328	N	0.707048	0.631613	0.673329
1329	C	0.689317	0.596491	0.673535
1330	N	0.707178	0.579237	0.673508
1331	C	0.742184	0.596665	0.673228
1332	N	0.758813	0.631382	0.672955
1333	C	0.863165	0.595982	0.673103
1334	N	0.880887	0.578714	0.673367
1335	C	0.916015	0.596124	0.673535
1336	N	0.933267	0.631241	0.673485
1337	C	0.915831	0.648805	0.673211
1338	N	0.881112	0.630702	0.672968
1339	C	0.916492	0.770473	0.673096
1340	N	0.933764	0.805469	0.673367
1341	C	0.916357	0.823182	0.673535
1342	N	0.881235	0.805305	0.673471
1343	C	0.863665	0.770303	0.673194
1344	N	0.881767	0.753692	0.672951
1345	C	0.652818	0.578162	0.673451
1346	C	0.634223	0.568885	0.965939
1347	C	0.597775	0.55062	0.965142
1348	C	0.579109	0.541232	0.006654
1349	C	0.597661	0.550476	0.71494
1350	H	0.647612	0.575626	0.936165
1351	C	0.634108	0.56873	0.7142
1352	H	0.647389	0.575359	0.744093
1353	C	0.57985	0.541676	0.920658
1354	H	0.597582	0.550576	0.892089
1355	H	0.563695	0.553331	0.917828
1356	H	0.563729	0.513862	0.917761
1357	C	0.581063	0.542128	0.760319
1358	H	0.553113	0.528135	0.759066
1359	H	0.589024	0.565817	0.779125
1360	H	0.589053	0.526395	0.779047
1361	C	0.934346	0.577962	0.673454
1362	C	0.943626	0.568651	0.965942
1363	C	0.961881	0.550466	0.965142
1364	C	0.97126	0.541181	0.006654
1365	C	0.962013	0.550481	0.71494
1366	H	0.936888	0.575302	0.936165
1367	C	0.943764	0.568674	0.714204
1368	H	0.937135	0.57532	0.744096
1369	C	0.970825	0.541489	0.920658
1370	H	0.961929	0.550322	0.892093
1371	H	0.95916	0.513675	0.917825
1372	H	0.998639	0.553184	0.917767
1373	C	0.970351	0.542226	0.760319
1374	H	0.98434	0.528269	0.759066
1375	H	0.946656	0.526492	0.779118
1376	H	0.986088	0.56595	0.779054
1377	C	0.934521	0.859678	0.673454
1378	C	0.943824	0.878271	0.965939
1379	C	0.962003	0.914713	0.965142
1380	C	0.971291	0.933378	0.006655
1381	C	0.961994	0.914828	0.71494
1382	H	0.937173	0.864881	0.936165
1383	C	0.943807	0.878384	0.7142
1384	H	0.937161	0.865107	0.744093
1385	C	0.970979	0.932638	0.920661
1386	H	0.962143	0.914908	0.892093
1387	H	0.998794	0.948798	0.917825
1388	H	0.959277	0.948747	0.917771
1389	C	0.970247	0.931424	0.760322
1390	H	0.984199	0.959372	0.759069
1391	H	0.985988	0.923477	0.779118
1392	H	0.946519	0.92342	0.779057
1393	C	0.827014	0.581137	0.006381
1394	C	0.810288	0.579951	0.713839
1395	C	0.779014	0.580421	0.714562
1396	C	0.763723	0.581917	0.673012
1397	C	0.779368	0.581096	0.96476
1398	H	0.822963	0.582457	0.743606
1399	C	0.810751	0.580878	0.96554
1400	H	0.82366	0.583951	0.935786
1401	C	0.764551	0.582467	0.759019
1402	H	0.778155	0.579415	0.787587
1403	H	0.737738	0.562159	0.76121
1404	H	0.765937	0.607277	0.762578
1405	C	0.766297	0.583725	0.91952
1406	H	0.741213	0.581884	0.920945
1407	H	0.763719	0.562919	0.89786
1408	H	0.784346	0.608196	0.903854
1409	C	0.93134	0.749179	0.006371
1410	C	0.932517	0.733625	0.713815
1411	C	0.932051	0.701886	0.714514
1412	C	0.930557	0.685085	0.672961
1413	C	0.931409	0.701601	0.96474
1414	H	0.930002	0.74378	0.743589
1415	C	0.931625	0.733199	0.965527
1416	H	0.928563	0.743041	0.935773
1417	C	0.930009	0.68538	0.758975
1418	H	0.933069	0.702035	0.787543
1419	H	0.950318	0.67888	0.76116
1420	H	0.905197	0.66195	0.762537
1421	C	0.928785	0.685911	0.9195
1422	H	0.93061	0.662662	0.920915
1423	H	0.949606	0.704145	0.89785
1424	H	0.90432	0.679499	0.903817
1425	C	0.763362	0.68549	0.006293
1426	C	0.778887	0.702158	0.713788
1427	C	0.810626	0.733445	0.714511
1428	C	0.827361	0.74875	0.672934
1429	C	0.81092	0.733135	0.964669
1430	H	0.768723	0.689464	0.743546
1431	C	0.779318	0.70174	0.965439
1432	H	0.769475	0.68883	0.935689
1433	C	0.827139	0.747903	0.758975
1434	H	0.810492	0.73428	0.78754
1435	H	0.833623	0.774706	0.761183
1436	H	0.850584	0.746548	0.76251
1437	C	0.826629	0.746234	0.919442
1438	H	0.849877	0.77132	0.920894
1439	H	0.8084	0.748817	0.897789
1440	H	0.833059	0.728201	0.903753
