data_C504H144N144O72_2018-02-15_10:37:19
#******************************************
#
# CIF file created by Zeo++
# Zeo++ is an open source package to
# analyze microporous materials
#
#*******************************************

_cell_length_a		43.6374   
_cell_length_b		43.6374   
_cell_length_c		29.6256   
_cell_angle_alpha		90   
_cell_angle_beta		90   
_cell_angle_gamma		120   

_symmetry_space_group_name_H-M		'P1'
_symmetry_Int_Tables_number		1
_symmetry_cell_setting		Monoclinic

loop_
_symmetry_equiv_pos_as_xyz
'+x,+y,+z'

loop_
_atom_site_label
_atom_site_type_symbol
_atom_site_fract_x
_atom_site_fract_y
_atom_site_fract_z
1	N	0.158224	0.357577	0.006297
2	C	0.14004	0.3216	0.006067
3	N	0.158223	0.303807	0.006297
4	C	0.028203	0.265682	0.008996
5	C	0.082599	0.292882	0.300754
6	C	0.102785	0.302974	0.007441
7	C	0.084576	0.293869	0.049039
8	N	0.046709	0.274936	0.3029
9	C	0.04711	0.275137	0.050532
10	C	0.02807	0.265616	0.091646
11	H	0.098841	0.301003	0.078434
12	H	0.094562	0.298862	0.269802
13	O	0.045195	0.274179	0.131833
14	N	0.158224	0.357577	0.339632
15	C	0.14004	0.3216	0.3394
16	N	0.158223	0.303807	0.339632
17	C	0.028203	0.265682	0.342329
18	C	0.082599	0.292882	0.634088
19	C	0.102785	0.302974	0.340773
20	C	0.084576	0.293869	0.382373
21	N	0.046709	0.274936	0.636231
22	C	0.04711	0.275137	0.383865
23	C	0.02807	0.265616	0.424978
24	H	0.098841	0.301003	0.411766
25	H	0.094562	0.298862	0.603135
26	O	0.045195	0.274179	0.465166
27	N	0.158224	0.357577	0.672966
28	C	0.14004	0.3216	0.672733
29	N	0.158223	0.303807	0.672963
30	C	0.028203	0.265682	0.67566
31	C	0.082599	0.292882	0.967418
32	C	0.102785	0.302974	0.674107
33	C	0.084576	0.293869	0.715706
34	N	0.046709	0.274936	0.969565
35	C	0.04711	0.275137	0.717198
36	C	0.02807	0.265616	0.758312
37	H	0.098841	0.301003	0.7451
38	H	0.094562	0.298862	0.936469
39	O	0.045195	0.274179	0.7985
40	N	0.158226	0.857579	0.006297
41	C	0.14004	0.821602	0.006067
42	N	0.158223	0.803807	0.006297
43	C	0.028202	0.765681	0.008996
44	C	0.0826	0.792881	0.300754
45	C	0.102784	0.802973	0.007441
46	C	0.084577	0.793871	0.049039
47	N	0.046709	0.774935	0.3029
48	C	0.04711	0.775136	0.050532
49	C	0.028068	0.765615	0.091646
50	H	0.09884	0.801002	0.078434
51	H	0.094563	0.798864	0.269802
52	O	0.045194	0.774178	0.131833
53	N	0.158226	0.857579	0.339632
54	C	0.14004	0.821602	0.3394
55	N	0.158223	0.803807	0.339632
56	C	0.028202	0.765681	0.342329
57	C	0.0826	0.792881	0.634088
58	C	0.102784	0.802973	0.340773
59	C	0.084577	0.793871	0.382373
60	N	0.046709	0.774935	0.636231
61	C	0.04711	0.775136	0.383865
62	C	0.028068	0.765615	0.424978
63	H	0.09884	0.801002	0.411766
64	H	0.094563	0.798864	0.603135
65	O	0.045194	0.774178	0.465166
66	N	0.158226	0.857579	0.672966
67	C	0.14004	0.821602	0.672733
68	N	0.158223	0.803807	0.672963
69	C	0.028202	0.765681	0.67566
70	C	0.0826	0.792881	0.967418
71	C	0.102784	0.802973	0.674107
72	C	0.084577	0.793871	0.715706
73	N	0.046709	0.774935	0.969565
74	C	0.04711	0.775136	0.717198
75	C	0.028068	0.765615	0.758312
76	H	0.09884	0.801002	0.7451
77	H	0.094563	0.798864	0.936469
78	O	0.045194	0.774178	0.7985
79	C	0.194201	0.375761	0.006067
80	C	0.1942	0.3216	0.006064
81	N	0.211994	0.357577	0.006297
82	C	0.222921	0.292879	0.300752
83	C	0.212829	0.302974	0.007439
84	C	0.221933	0.293869	0.049037
85	H	0.2148	0.301	0.078432
86	H	0.21694	0.298862	0.2698
87	C	0.222923	0.433203	0.300753
88	C	0.21283	0.413016	0.00744
89	C	0.221934	0.431227	0.049038
90	H	0.214802	0.416961	0.078433
91	H	0.216941	0.42124	0.269801
92	C	0.194201	0.375761	0.3394
93	C	0.1942	0.3216	0.3394
94	N	0.211994	0.357577	0.339629
95	C	0.222921	0.292879	0.634084
96	C	0.212829	0.302974	0.340773
97	C	0.221933	0.293869	0.382369
98	H	0.2148	0.301	0.411766
99	H	0.21694	0.298862	0.603131
100	C	0.222923	0.433203	0.634084
101	C	0.21283	0.413016	0.340773
102	C	0.221934	0.431227	0.382373
103	H	0.214802	0.416961	0.411766
104	H	0.216941	0.42124	0.603135
105	C	0.194201	0.375761	0.672733
106	C	0.1942	0.3216	0.672733
107	N	0.211994	0.357577	0.672963
108	C	0.222921	0.292879	0.967418
109	C	0.212829	0.302974	0.674104
110	C	0.221933	0.293869	0.715703
111	H	0.2148	0.301	0.745097
112	H	0.21694	0.298862	0.936465
113	C	0.222923	0.433203	0.967418
114	C	0.21283	0.413016	0.674104
115	C	0.221934	0.431227	0.715703
116	H	0.214802	0.416961	0.7451
117	H	0.216941	0.42124	0.936465
118	C	0.194202	0.87576	0.006067
119	C	0.1942	0.821599	0.006064
120	N	0.211993	0.857576	0.006297
121	C	0.222922	0.792881	0.300752
122	C	0.212829	0.802973	0.007439
123	C	0.221933	0.793868	0.049037
124	H	0.2148	0.800999	0.078432
125	H	0.21694	0.798861	0.2698
126	C	0.222923	0.933203	0.300753
127	C	0.21283	0.913018	0.00744
128	C	0.221934	0.931226	0.049038
129	H	0.214802	0.916961	0.078433
130	H	0.216941	0.921239	0.269801
131	C	0.194202	0.87576	0.3394
132	C	0.1942	0.821599	0.3394
133	N	0.211993	0.857576	0.339629
134	C	0.222922	0.792881	0.634084
135	C	0.212829	0.802973	0.340773
136	C	0.221933	0.793868	0.382369
137	H	0.2148	0.800999	0.411766
138	H	0.21694	0.798861	0.603131
139	C	0.222923	0.933203	0.634084
140	C	0.21283	0.913018	0.340773
141	C	0.221934	0.931226	0.382373
142	H	0.214802	0.916961	0.411766
143	H	0.216941	0.921239	0.603135
144	C	0.194202	0.87576	0.672733
145	C	0.1942	0.821599	0.672733
146	N	0.211993	0.857576	0.672963
147	C	0.222922	0.792881	0.967418
148	C	0.212829	0.802973	0.674104
149	C	0.221933	0.793868	0.715703
150	H	0.2148	0.800999	0.745097
151	H	0.21694	0.798861	0.936465
152	C	0.222923	0.933203	0.967418
153	C	0.21283	0.913018	0.674104
154	C	0.221934	0.931226	0.715703
155	H	0.214802	0.916961	0.7451
156	H	0.216941	0.921239	0.936465
157	N	0.27807	0.237732	0.302812
158	C	0.268844	0.246958	0.00895
159	C	0.278327	0.237475	0.050443
160	C	0.25012	0.265682	0.008994
161	N	0.240867	0.274936	0.302898
162	C	0.240666	0.275134	0.05053
163	C	0.250187	0.265616	0.091645
164	C	0.268836	0.246966	0.091601
165	O	0.241623	0.274179	0.131831
166	O	0.277429	0.238374	0.131748
167	N	0.278068	0.043497	0.302812
168	C	0.268842	0.025046	0.008951
169	C	0.278325	0.044012	0.050442
170	C	0.250121	0.4876	0.008995
171	N	0.240867	0.469093	0.302899
172	C	0.240667	0.468693	0.05053
173	C	0.250187	0.487732	0.091645
174	C	0.268835	0.025031	0.091601
175	O	0.241624	0.470606	0.131832
176	O	0.277427	0.042215	0.131748
177	N	0.27807	0.237732	0.636143
178	C	0.268844	0.246958	0.342282
179	C	0.278327	0.237475	0.383777
180	C	0.25012	0.265682	0.342326
181	N	0.240867	0.274936	0.636231
182	C	0.240666	0.275134	0.383861
183	C	0.250187	0.265616	0.424978
184	C	0.268836	0.246966	0.424934
185	O	0.241623	0.274179	0.465163
186	O	0.277429	0.238374	0.465082
187	N	0.278068	0.043497	0.636143
188	C	0.268842	0.025046	0.342282
189	C	0.278325	0.044012	0.383777
190	C	0.250121	0.4876	0.342326
191	N	0.240867	0.469093	0.636231
192	C	0.240667	0.468693	0.383865
193	C	0.250187	0.487732	0.424978
194	C	0.268835	0.025031	0.424934
195	O	0.241624	0.470606	0.465166
196	O	0.277427	0.042215	0.465082
197	N	0.27807	0.237732	0.969477
198	C	0.268844	0.246958	0.675616
199	C	0.278327	0.237475	0.717107
200	C	0.25012	0.265682	0.67566
201	N	0.240867	0.274936	0.969565
202	C	0.240666	0.275134	0.717195
203	C	0.250187	0.265616	0.758312
204	C	0.268836	0.246966	0.758268
205	O	0.241623	0.274179	0.798496
206	O	0.277429	0.238374	0.798412
207	N	0.278068	0.043497	0.969477
208	C	0.268842	0.025046	0.675616
209	C	0.278325	0.044012	0.717107
210	C	0.250121	0.4876	0.67566
211	N	0.240867	0.469093	0.969565
212	C	0.240667	0.468693	0.717195
213	C	0.250187	0.487732	0.758312
214	C	0.268835	0.025031	0.758268
215	O	0.241624	0.470606	0.798496
216	O	0.277427	0.042215	0.798412
217	N	0.27807	0.737733	0.302812
218	C	0.268844	0.746957	0.00895
219	C	0.278327	0.737476	0.050443
220	C	0.25012	0.765681	0.008994
221	N	0.240867	0.774935	0.302898
222	C	0.240667	0.775136	0.05053
223	C	0.250187	0.765615	0.091645
224	C	0.268836	0.746965	0.091601
225	O	0.241623	0.774178	0.131831
226	O	0.277429	0.738376	0.131748
227	N	0.278068	0.543497	0.302812
228	C	0.268844	0.525048	0.008951
229	C	0.278326	0.544013	0.050442
230	C	0.250121	0.987599	0.008995
231	N	0.240867	0.969092	0.302899
232	C	0.240668	0.968693	0.05053
233	C	0.250188	0.987734	0.091645
234	C	0.268836	0.525032	0.091601
235	O	0.241624	0.970606	0.131832
236	O	0.277428	0.542216	0.131748
237	N	0.27807	0.737733	0.636143
238	C	0.268844	0.746957	0.342282
239	C	0.278327	0.737476	0.383777
240	C	0.25012	0.765681	0.342326
241	N	0.240867	0.774935	0.636231
242	C	0.240667	0.775136	0.383861
243	C	0.250187	0.765615	0.424978
244	C	0.268836	0.746965	0.424934
245	O	0.241623	0.774178	0.465163
246	O	0.277429	0.738376	0.465082
247	N	0.278068	0.543497	0.636143
248	C	0.268844	0.525048	0.342282
249	C	0.278326	0.544013	0.383777
250	C	0.250121	0.987599	0.342326
251	N	0.240867	0.969092	0.636231
252	C	0.240668	0.968693	0.383865
253	C	0.250188	0.987734	0.424978
254	C	0.268836	0.525032	0.424934
255	O	0.241624	0.970606	0.465166
256	O	0.277428	0.542216	0.465082
257	N	0.27807	0.737733	0.969477
258	C	0.268844	0.746957	0.675616
259	C	0.278327	0.737476	0.717107
260	C	0.25012	0.765681	0.67566
261	N	0.240867	0.774935	0.969565
262	C	0.240667	0.775136	0.717195
263	C	0.250187	0.765615	0.758312
264	C	0.268836	0.746965	0.758268
265	O	0.241623	0.774178	0.798496
266	O	0.277429	0.738376	0.798412
267	N	0.278068	0.543497	0.969477
268	C	0.268844	0.525048	0.675616
269	C	0.278326	0.544013	0.717107
270	C	0.250121	0.987599	0.67566
271	N	0.240867	0.969092	0.969565
272	C	0.240668	0.968693	0.717195
273	C	0.250188	0.987734	0.758312
274	C	0.268836	0.525032	0.758268
275	O	0.241624	0.970606	0.798496
276	O	0.277428	0.542216	0.798412
277	C	0.324762	0.13688	0.005774
278	N	0.360736	0.155064	0.006017
279	C	0.378922	0.19104	0.005774
280	N	0.360738	0.208834	0.006017
281	C	0.324762	0.191041	0.005774
282	N	0.306968	0.155065	0.006017
283	C	0.306134	0.209668	0.007224
284	C	0.296013	0.219789	0.300583
285	C	0.297059	0.218744	0.048864
286	H	0.304212	0.211591	0.078226
287	H	0.301974	0.213829	0.269604
288	C	0.306132	0.099626	0.007223
289	C	0.296011	0.079384	0.300583
290	C	0.297057	0.081476	0.048864
291	H	0.30421	0.095782	0.078226
292	H	0.301971	0.091304	0.269603
293	C	0.416174	0.209667	0.007225
294	C	0.436417	0.219789	0.300584
295	N	0.472304	0.237732	0.302813
296	C	0.490756	0.246958	0.008952
297	C	0.47179	0.237475	0.050444
298	C	0.434326	0.218743	0.048865
299	H	0.420021	0.21159	0.078227
300	H	0.424497	0.213828	0.269605
301	C	0.490771	0.246965	0.091603
302	O	0.473587	0.238373	0.131749
303	C	0.324762	0.13688	0.339106
304	N	0.360736	0.155064	0.339349
305	C	0.378922	0.19104	0.339106
306	N	0.360738	0.208834	0.339349
307	C	0.324762	0.191041	0.339106
308	N	0.306968	0.155065	0.339349
309	C	0.306134	0.209668	0.340557
310	C	0.296013	0.219789	0.633916
311	C	0.297059	0.218744	0.382197
312	H	0.304212	0.211591	0.41156
313	H	0.301974	0.213829	0.602936
314	C	0.306132	0.099626	0.340557
315	C	0.296011	0.079384	0.633916
316	C	0.297057	0.081476	0.382197
317	H	0.30421	0.095782	0.41156
318	H	0.301971	0.091304	0.602936
319	C	0.416174	0.209667	0.340557
320	C	0.436417	0.219789	0.633916
321	N	0.472304	0.237732	0.636147
322	C	0.490756	0.246958	0.342286
323	C	0.47179	0.237475	0.383777
324	C	0.434326	0.218743	0.382197
325	H	0.420021	0.21159	0.41156
326	H	0.424497	0.213828	0.602939
327	C	0.490771	0.246965	0.424934
328	O	0.473587	0.238373	0.465082
329	C	0.324762	0.13688	0.67244
330	N	0.360736	0.155064	0.672683
331	C	0.378922	0.19104	0.67244
332	N	0.360738	0.208834	0.672683
333	C	0.324762	0.191041	0.67244
334	N	0.306968	0.155065	0.672683
335	C	0.306134	0.209668	0.673891
336	C	0.296013	0.219789	0.967249
337	C	0.297059	0.218744	0.715531
338	H	0.304212	0.211591	0.744891
339	H	0.301974	0.213829	0.936269
340	C	0.306132	0.099626	0.673888
341	C	0.296011	0.079384	0.967249
342	C	0.297057	0.081476	0.715528
343	H	0.30421	0.095782	0.744891
344	H	0.301971	0.091304	0.936269
345	C	0.416174	0.209667	0.673891
346	C	0.436417	0.219789	0.967249
347	N	0.472304	0.237732	0.969477
348	C	0.490756	0.246958	0.675616
349	C	0.47179	0.237475	0.717111
350	C	0.434326	0.218743	0.715531
351	H	0.420021	0.21159	0.744894
352	H	0.424497	0.213828	0.936269
353	C	0.490771	0.246965	0.758268
354	O	0.473587	0.238373	0.798415
355	C	0.324761	0.636881	0.005774
356	N	0.360738	0.655065	0.006017
357	C	0.378922	0.691042	0.005774
358	N	0.360738	0.708835	0.006017
359	C	0.324762	0.691042	0.005774
360	N	0.306968	0.655065	0.006017
361	C	0.306134	0.709668	0.007224
362	C	0.296014	0.71979	0.300583
363	C	0.29706	0.718744	0.048864
364	H	0.304212	0.711592	0.078226
365	H	0.301974	0.713831	0.269604
366	C	0.306132	0.599626	0.007223
367	C	0.296011	0.579383	0.300583
368	C	0.297058	0.581476	0.048864
369	H	0.304211	0.595781	0.078226
370	H	0.301972	0.591304	0.269603
371	C	0.416175	0.709668	0.007225
372	C	0.436418	0.71979	0.300584
373	N	0.472305	0.737733	0.302813
374	C	0.490755	0.746957	0.008952
375	C	0.47179	0.737476	0.050444
376	C	0.434325	0.718742	0.048865
377	H	0.42002	0.711589	0.078227
378	H	0.424497	0.713828	0.269605
379	C	0.49077	0.746965	0.091603
380	O	0.473587	0.738373	0.131749
381	C	0.324761	0.636881	0.339106
382	N	0.360738	0.655065	0.339349
383	C	0.378922	0.691042	0.339106
384	N	0.360738	0.708835	0.339349
385	C	0.324762	0.691042	0.339106
386	N	0.306968	0.655065	0.339349
387	C	0.306134	0.709668	0.340557
388	C	0.296014	0.71979	0.633916
389	C	0.29706	0.718744	0.382197
390	H	0.304212	0.711592	0.41156
391	H	0.301974	0.713831	0.602936
392	C	0.306132	0.599626	0.340557
393	C	0.296011	0.579383	0.633916
394	C	0.297058	0.581476	0.382197
395	H	0.304211	0.595781	0.41156
396	H	0.301972	0.591304	0.602936
397	C	0.416175	0.709668	0.340557
398	C	0.436418	0.71979	0.633916
399	N	0.472305	0.737733	0.636147
400	C	0.490755	0.746957	0.342286
401	C	0.47179	0.737476	0.383777
402	C	0.434325	0.718742	0.382197
403	H	0.42002	0.711589	0.41156
404	H	0.424497	0.713828	0.602939
405	C	0.49077	0.746965	0.424934
406	O	0.473587	0.738373	0.465082
407	C	0.324761	0.636881	0.67244
408	N	0.360738	0.655065	0.672683
409	C	0.378922	0.691042	0.67244
410	N	0.360738	0.708835	0.672683
411	C	0.324762	0.691042	0.67244
412	N	0.306968	0.655065	0.672683
413	C	0.306134	0.709668	0.673891
414	C	0.296014	0.71979	0.967249
415	C	0.29706	0.718744	0.715531
416	H	0.304212	0.711592	0.744891
417	H	0.301974	0.713831	0.936269
418	C	0.306132	0.599626	0.673888
419	C	0.296011	0.579383	0.967249
420	C	0.297058	0.581476	0.715528
421	H	0.304211	0.595781	0.744891
422	H	0.301972	0.591304	0.936269
423	C	0.416175	0.709668	0.673891
424	C	0.436418	0.71979	0.967249
425	N	0.472305	0.737733	0.969477
426	C	0.490755	0.746957	0.675616
427	C	0.47179	0.737476	0.717111
428	C	0.434325	0.718742	0.715531
429	H	0.42002	0.711589	0.744894
430	H	0.424497	0.713828	0.936269
431	C	0.49077	0.746965	0.758268
432	O	0.473587	0.738373	0.798415
433	C	0.694201	0.375761	0.006067
434	N	0.658223	0.357577	0.006297
435	C	0.64004	0.3216	0.006067
436	N	0.658224	0.303807	0.006297
437	C	0.6942	0.3216	0.006064
438	N	0.711994	0.357577	0.006297
439	C	0.824762	0.13688	0.005774
440	N	0.860736	0.155064	0.006017
441	C	0.878922	0.19104	0.005774
442	N	0.860738	0.208834	0.006017
443	C	0.824762	0.191041	0.005774
444	N	0.806968	0.155065	0.006017
445	C	0.806134	0.209668	0.007224
446	C	0.796012	0.219789	0.300583
447	N	0.778069	0.237732	0.302812
448	C	0.768843	0.246958	0.00895
449	C	0.778328	0.237475	0.050443
450	C	0.797059	0.218744	0.048864
451	H	0.804212	0.211591	0.078226
452	C	0.750121	0.265682	0.008994
453	C	0.722922	0.292879	0.300752
454	C	0.712829	0.302974	0.007439
455	C	0.721932	0.293869	0.049037
456	H	0.801974	0.213829	0.269604
457	N	0.740868	0.274936	0.302898
458	C	0.740667	0.275134	0.05053
459	C	0.750187	0.265616	0.091645
460	C	0.768835	0.246966	0.091601
461	H	0.7148	0.301	0.078432
462	H	0.71694	0.298862	0.2698
463	O	0.741624	0.274179	0.131831
464	O	0.777428	0.238374	0.131748
465	C	0.806132	0.099626	0.007223
466	C	0.796011	0.079384	0.300583
467	N	0.778068	0.043497	0.302812
468	C	0.768842	0.025046	0.008951
469	C	0.778325	0.044012	0.050442
470	C	0.797057	0.081476	0.048864
471	H	0.80421	0.095782	0.078226
472	C	0.75012	0.4876	0.008995
473	C	0.722922	0.433203	0.300753
474	C	0.71283	0.413016	0.00744
475	C	0.721934	0.431227	0.049038
476	H	0.801971	0.091304	0.269603
477	N	0.740867	0.469093	0.302899
478	C	0.740667	0.468693	0.05053
479	C	0.750186	0.487732	0.091645
480	C	0.768835	0.025031	0.091601
481	H	0.714801	0.416961	0.078433
482	H	0.71694	0.42124	0.269801
483	O	0.741623	0.470606	0.131832
484	O	0.777427	0.042215	0.131748
485	C	0.916174	0.209667	0.007225
486	C	0.936417	0.219789	0.300584
487	N	0.972304	0.237732	0.302813
488	C	0.990756	0.246958	0.008952
489	C	0.97179	0.237475	0.050444
490	C	0.934324	0.218743	0.048865
491	H	0.920018	0.21159	0.078227
492	C	0.528201	0.265682	0.008996
493	C	0.582599	0.292882	0.300754
494	C	0.602786	0.302974	0.007441
495	C	0.584575	0.293869	0.049039
496	H	0.924497	0.213828	0.269605
497	N	0.546708	0.274936	0.3029
498	C	0.547109	0.275137	0.050532
499	C	0.52807	0.265616	0.091646
500	C	0.990771	0.246965	0.091603
501	H	0.598841	0.301003	0.078434
502	H	0.594563	0.298862	0.269802
503	O	0.545196	0.274179	0.131833
504	O	0.973587	0.238373	0.131749
505	C	0.694201	0.375761	0.3394
506	N	0.658223	0.357577	0.339632
507	C	0.64004	0.3216	0.3394
508	N	0.658224	0.303807	0.339632
509	C	0.6942	0.3216	0.3394
510	N	0.711994	0.357577	0.339629
511	C	0.824762	0.13688	0.339106
512	N	0.860736	0.155064	0.339349
513	C	0.878922	0.19104	0.339106
514	N	0.860738	0.208834	0.339349
515	C	0.824762	0.191041	0.339106
516	N	0.806968	0.155065	0.339349
517	C	0.806134	0.209668	0.340557
518	C	0.796012	0.219789	0.633916
519	N	0.778069	0.237732	0.636143
520	C	0.768843	0.246958	0.342282
521	C	0.778328	0.237475	0.383777
522	C	0.797059	0.218744	0.382197
523	H	0.804212	0.211591	0.41156
524	C	0.750121	0.265682	0.342326
525	C	0.722922	0.292879	0.634084
526	C	0.712829	0.302974	0.340773
527	C	0.721932	0.293869	0.382369
528	H	0.801974	0.213829	0.602936
529	N	0.740868	0.274936	0.636231
530	C	0.740667	0.275134	0.383861
531	C	0.750187	0.265616	0.424978
532	C	0.768835	0.246966	0.424934
533	H	0.7148	0.301	0.411766
534	H	0.71694	0.298862	0.603131
535	O	0.741624	0.274179	0.465163
536	O	0.777428	0.238374	0.465082
537	C	0.806132	0.099626	0.340557
538	C	0.796011	0.079384	0.633916
539	N	0.778068	0.043497	0.636143
540	C	0.768842	0.025046	0.342282
541	C	0.778325	0.044012	0.383777
542	C	0.797057	0.081476	0.382197
543	H	0.80421	0.095782	0.41156
544	C	0.75012	0.4876	0.342326
545	C	0.722922	0.433203	0.634084
546	C	0.71283	0.413016	0.340773
547	C	0.721934	0.431227	0.382373
548	H	0.801971	0.091304	0.602936
549	N	0.740867	0.469093	0.636231
550	C	0.740667	0.468693	0.383865
551	C	0.750186	0.487732	0.424978
552	C	0.768835	0.025031	0.424934
553	H	0.714801	0.416961	0.411766
554	H	0.71694	0.42124	0.603135
555	O	0.741623	0.470606	0.465166
556	O	0.777427	0.042215	0.465082
557	C	0.916174	0.209667	0.340557
558	C	0.936417	0.219789	0.633916
559	N	0.972304	0.237732	0.636147
560	C	0.990756	0.246958	0.342286
561	C	0.97179	0.237475	0.383777
562	C	0.934324	0.218743	0.382197
563	H	0.920018	0.21159	0.41156
564	C	0.528201	0.265682	0.342329
565	C	0.582599	0.292882	0.634088
566	C	0.602786	0.302974	0.340773
567	C	0.584575	0.293869	0.382373
568	H	0.924497	0.213828	0.602939
569	N	0.546708	0.274936	0.636231
570	C	0.547109	0.275137	0.383865
571	C	0.52807	0.265616	0.424978
572	C	0.990771	0.246965	0.424934
573	H	0.598841	0.301003	0.411766
574	H	0.594563	0.298862	0.603135
575	O	0.545196	0.274179	0.465166
576	O	0.973587	0.238373	0.465082
577	C	0.694201	0.375761	0.672733
578	N	0.658223	0.357577	0.672966
579	C	0.64004	0.3216	0.672733
580	N	0.658224	0.303807	0.672963
581	C	0.6942	0.3216	0.672733
582	N	0.711994	0.357577	0.672963
583	C	0.824762	0.13688	0.67244
584	N	0.860736	0.155064	0.672683
585	C	0.878922	0.19104	0.67244
586	N	0.860738	0.208834	0.672683
587	C	0.824762	0.191041	0.67244
588	N	0.806968	0.155065	0.672683
589	C	0.806134	0.209668	0.673891
590	C	0.796012	0.219789	0.967249
591	N	0.778069	0.237732	0.969477
592	C	0.768843	0.246958	0.675616
593	C	0.778328	0.237475	0.717107
594	C	0.797059	0.218744	0.715531
595	H	0.804212	0.211591	0.744891
596	C	0.750121	0.265682	0.67566
597	C	0.722922	0.292879	0.967418
598	C	0.712829	0.302974	0.674104
599	C	0.721932	0.293869	0.715703
600	H	0.801974	0.213829	0.936269
601	N	0.740868	0.274936	0.969565
602	C	0.740667	0.275134	0.717195
603	C	0.750187	0.265616	0.758312
604	C	0.768835	0.246966	0.758268
605	H	0.7148	0.301	0.745097
606	H	0.71694	0.298862	0.936465
607	O	0.741624	0.274179	0.798496
608	O	0.777428	0.238374	0.798412
609	C	0.806132	0.099626	0.673888
610	C	0.796011	0.079384	0.967249
611	N	0.778068	0.043497	0.969477
612	C	0.768842	0.025046	0.675616
613	C	0.778325	0.044012	0.717107
614	C	0.797057	0.081476	0.715528
615	H	0.80421	0.095782	0.744891
616	C	0.75012	0.4876	0.67566
617	C	0.722922	0.433203	0.967418
618	C	0.71283	0.413016	0.674104
619	C	0.721934	0.431227	0.715703
620	H	0.801971	0.091304	0.936269
621	N	0.740867	0.469093	0.969565
622	C	0.740667	0.468693	0.717195
623	C	0.750186	0.487732	0.758312
624	C	0.768835	0.025031	0.758268
625	H	0.714801	0.416961	0.7451
626	H	0.71694	0.42124	0.936465
627	O	0.741623	0.470606	0.798496
628	O	0.777427	0.042215	0.798412
629	C	0.916174	0.209667	0.673891
630	C	0.936417	0.219789	0.967249
631	N	0.972304	0.237732	0.969477
632	C	0.990756	0.246958	0.675616
633	C	0.97179	0.237475	0.717111
634	C	0.934324	0.218743	0.715531
635	H	0.920018	0.21159	0.744894
636	C	0.528201	0.265682	0.67566
637	C	0.582599	0.292882	0.967418
638	C	0.602786	0.302974	0.674107
639	C	0.584575	0.293869	0.715706
640	H	0.924497	0.213828	0.936269
641	N	0.546708	0.274936	0.969565
642	C	0.547109	0.275137	0.717198
643	C	0.52807	0.265616	0.758312
644	C	0.990771	0.246965	0.758268
645	H	0.598841	0.301003	0.7451
646	H	0.594563	0.298862	0.936469
647	O	0.545196	0.274179	0.7985
648	O	0.973587	0.238373	0.798415
649	C	0.694199	0.87576	0.006067
650	N	0.658223	0.857579	0.006297
651	C	0.64004	0.821602	0.006067
652	N	0.658223	0.803807	0.006297
653	C	0.694199	0.821599	0.006064
654	N	0.711992	0.857576	0.006297
655	C	0.824761	0.636881	0.005774
656	N	0.860738	0.655065	0.006017
657	C	0.878921	0.691042	0.005774
658	N	0.860738	0.708835	0.006017
659	C	0.824761	0.691042	0.005774
660	N	0.806968	0.655065	0.006017
661	C	0.806135	0.709668	0.007224
662	C	0.796014	0.71979	0.300583
663	N	0.778071	0.737733	0.302812
664	C	0.768844	0.746957	0.00895
665	C	0.778327	0.737476	0.050443
666	C	0.797059	0.718744	0.048864
667	H	0.804212	0.711592	0.078226
668	C	0.75012	0.765681	0.008994
669	C	0.722922	0.792881	0.300752
670	C	0.71283	0.802973	0.007439
671	C	0.721933	0.793868	0.049037
672	H	0.801974	0.713831	0.269604
673	N	0.740866	0.774935	0.302898
674	C	0.740667	0.775136	0.05053
675	C	0.750187	0.765615	0.091645
676	C	0.768836	0.746965	0.091601
677	H	0.714799	0.800999	0.078432
678	H	0.71694	0.798861	0.2698
679	O	0.741622	0.774178	0.131831
680	O	0.77743	0.738376	0.131748
681	C	0.806131	0.599626	0.007223
682	C	0.796012	0.579383	0.300583
683	N	0.778069	0.543497	0.302812
684	C	0.768844	0.525048	0.008951
685	C	0.778327	0.544013	0.050442
686	C	0.797058	0.581476	0.048864
687	H	0.804211	0.595781	0.078226
688	C	0.750121	0.987599	0.008995
689	C	0.722923	0.933203	0.300753
690	C	0.71283	0.913018	0.00744
691	C	0.721934	0.931226	0.049038
692	H	0.801972	0.591304	0.269603
693	N	0.740867	0.969092	0.302899
694	C	0.740668	0.968693	0.05053
695	C	0.750188	0.987734	0.091645
696	C	0.768836	0.525032	0.091601
697	H	0.714802	0.916961	0.078433
698	H	0.716941	0.921239	0.269801
699	O	0.741624	0.970606	0.131832
700	O	0.777428	0.542216	0.131748
701	C	0.916176	0.709668	0.007225
702	C	0.936419	0.71979	0.300584
703	N	0.972305	0.737733	0.302813
704	C	0.990754	0.746957	0.008952
705	C	0.97179	0.737476	0.050444
706	C	0.934325	0.718742	0.048865
707	H	0.920019	0.711589	0.078227
708	C	0.528202	0.765681	0.008996
709	C	0.582599	0.792881	0.300754
710	C	0.602785	0.802973	0.007441
711	C	0.584577	0.793871	0.049039
712	H	0.924496	0.713828	0.269605
713	N	0.546709	0.774935	0.3029
714	C	0.54711	0.775136	0.050532
715	C	0.528069	0.765615	0.091646
716	C	0.99077	0.746965	0.091603
717	H	0.598841	0.801002	0.078434
718	H	0.594563	0.798864	0.269802
719	O	0.545195	0.774178	0.131833
720	O	0.973586	0.738373	0.131749
721	C	0.694199	0.87576	0.3394
722	N	0.658223	0.857579	0.339632
723	C	0.64004	0.821602	0.3394
724	N	0.658223	0.803807	0.339632
725	C	0.694199	0.821599	0.3394
726	N	0.711992	0.857576	0.339629
727	C	0.824761	0.636881	0.339106
728	N	0.860738	0.655065	0.339349
729	C	0.878921	0.691042	0.339106
730	N	0.860738	0.708835	0.339349
731	C	0.824761	0.691042	0.339106
732	N	0.806968	0.655065	0.339349
733	C	0.806135	0.709668	0.340557
734	C	0.796014	0.71979	0.633916
735	N	0.778071	0.737733	0.636143
736	C	0.768844	0.746957	0.342282
737	C	0.778327	0.737476	0.383777
738	C	0.797059	0.718744	0.382197
739	H	0.804212	0.711592	0.41156
740	C	0.75012	0.765681	0.342326
741	C	0.722922	0.792881	0.634084
742	C	0.71283	0.802973	0.340773
743	C	0.721933	0.793868	0.382369
744	H	0.801974	0.713831	0.602936
745	N	0.740866	0.774935	0.636231
746	C	0.740667	0.775136	0.383861
747	C	0.750187	0.765615	0.424978
748	C	0.768836	0.746965	0.424934
749	H	0.714799	0.800999	0.411766
750	H	0.71694	0.798861	0.603131
751	O	0.741622	0.774178	0.465163
752	O	0.77743	0.738376	0.465082
753	C	0.806131	0.599626	0.340557
754	C	0.796012	0.579383	0.633916
755	N	0.778069	0.543497	0.636143
756	C	0.768844	0.525048	0.342282
757	C	0.778327	0.544013	0.383777
758	C	0.797058	0.581476	0.382197
759	H	0.804211	0.595781	0.41156
760	C	0.750121	0.987599	0.342326
761	C	0.722923	0.933203	0.634084
762	C	0.71283	0.913018	0.340773
763	C	0.721934	0.931226	0.382373
764	H	0.801972	0.591304	0.602936
765	N	0.740867	0.969092	0.636231
766	C	0.740668	0.968693	0.383865
767	C	0.750188	0.987734	0.424978
768	C	0.768836	0.525032	0.424934
769	H	0.714802	0.916961	0.411766
770	H	0.716941	0.921239	0.603135
771	O	0.741624	0.970606	0.465166
772	O	0.777428	0.542216	0.465082
773	C	0.916176	0.709668	0.340557
774	C	0.936419	0.71979	0.633916
775	N	0.972305	0.737733	0.636147
776	C	0.990754	0.746957	0.342286
777	C	0.97179	0.737476	0.383777
778	C	0.934325	0.718742	0.382197
779	H	0.920019	0.711589	0.41156
780	C	0.528202	0.765681	0.342329
781	C	0.582599	0.792881	0.634088
782	C	0.602785	0.802973	0.340773
783	C	0.584577	0.793871	0.382373
784	H	0.924496	0.713828	0.602939
785	N	0.546709	0.774935	0.636231
786	C	0.54711	0.775136	0.383865
787	C	0.528069	0.765615	0.424978
788	C	0.99077	0.746965	0.424934
789	H	0.598841	0.801002	0.411766
790	H	0.594563	0.798864	0.603135
791	O	0.545195	0.774178	0.465166
792	O	0.973586	0.738373	0.465082
793	C	0.694199	0.87576	0.672733
794	N	0.658223	0.857579	0.672966
795	C	0.64004	0.821602	0.672733
796	N	0.658223	0.803807	0.672963
797	C	0.694199	0.821599	0.672733
798	N	0.711992	0.857576	0.672963
799	C	0.824761	0.636881	0.67244
800	N	0.860738	0.655065	0.672683
801	C	0.878921	0.691042	0.67244
802	N	0.860738	0.708835	0.672683
803	C	0.824761	0.691042	0.67244
804	N	0.806968	0.655065	0.672683
805	C	0.806135	0.709668	0.673891
806	C	0.796014	0.71979	0.967249
807	N	0.778071	0.737733	0.969477
808	C	0.768844	0.746957	0.675616
809	C	0.778327	0.737476	0.717107
810	C	0.797059	0.718744	0.715531
811	H	0.804212	0.711592	0.744891
812	C	0.75012	0.765681	0.67566
813	C	0.722922	0.792881	0.967418
814	C	0.71283	0.802973	0.674104
815	C	0.721933	0.793868	0.715703
816	H	0.801974	0.713831	0.936269
817	N	0.740866	0.774935	0.969565
818	C	0.740667	0.775136	0.717195
819	C	0.750187	0.765615	0.758312
820	C	0.768836	0.746965	0.758268
821	H	0.714799	0.800999	0.745097
822	H	0.71694	0.798861	0.936465
823	O	0.741622	0.774178	0.798496
824	O	0.77743	0.738376	0.798412
825	C	0.806131	0.599626	0.673888
826	C	0.796012	0.579383	0.967249
827	N	0.778069	0.543497	0.969477
828	C	0.768844	0.525048	0.675616
829	C	0.778327	0.544013	0.717107
830	C	0.797058	0.581476	0.715528
831	H	0.804211	0.595781	0.744891
832	C	0.750121	0.987599	0.67566
833	C	0.722923	0.933203	0.967418
834	C	0.71283	0.913018	0.674104
835	C	0.721934	0.931226	0.715703
836	H	0.801972	0.591304	0.936269
837	N	0.740867	0.969092	0.969565
838	C	0.740668	0.968693	0.717195
839	C	0.750188	0.987734	0.758312
840	C	0.768836	0.525032	0.758268
841	H	0.714802	0.916961	0.7451
842	H	0.716941	0.921239	0.936465
843	O	0.741624	0.970606	0.798496
844	O	0.777428	0.542216	0.798412
845	C	0.916176	0.709668	0.673891
846	C	0.936419	0.71979	0.967249
847	N	0.972305	0.737733	0.969477
848	C	0.990754	0.746957	0.675616
849	C	0.97179	0.737476	0.717111
850	C	0.934325	0.718742	0.715531
851	H	0.920019	0.711589	0.744894
852	C	0.528202	0.765681	0.67566
853	C	0.582599	0.792881	0.967418
854	C	0.602785	0.802973	0.674107
855	C	0.584577	0.793871	0.715706
856	H	0.924496	0.713828	0.936269
857	N	0.546709	0.774935	0.969565
858	C	0.54711	0.775136	0.717198
859	C	0.528069	0.765615	0.758312
860	C	0.99077	0.746965	0.758268
861	H	0.598841	0.801002	0.7451
862	H	0.594563	0.798864	0.936469
863	O	0.545195	0.774178	0.7985
864	O	0.973586	0.738373	0.798415
