data_C504H144N216O288_2018-02-15_10:36:51
#******************************************
#
# CIF file created by Zeo++
# Zeo++ is an open source package to
# analyze microporous materials
#
#*******************************************

_cell_length_a		44.151   
_cell_length_b		44.151   
_cell_length_c		29.769   
_cell_angle_alpha		90   
_cell_angle_beta		90   
_cell_angle_gamma		120   

_symmetry_space_group_name_H-M		'P1'
_symmetry_Int_Tables_number		1
_symmetry_cell_setting		Monoclinic

loop_
_symmetry_equiv_pos_as_xyz
'+x,+y,+z'

loop_
_atom_site_label
_atom_site_type_symbol
_atom_site_fract_x
_atom_site_fract_y
_atom_site_fract_z
1	C	0.079467	0.318144	0.3349
2	C	0.042408	0.300061	0.335298
3	C	0.023669	0.262991	0.337022
4	C	0.042337	0.244575	0.00484
5	C	0.079394	0.263454	0.004322
6	N	0.023689	0.318379	0.334069
7	N	0.023547	0.207546	0.006423
8	O	0.030614	0.196319	0.041353
9	O	0.030751	0.338211	0.367456
10	C	0.079467	0.318144	0.668232
11	C	0.042408	0.300061	0.668632
12	C	0.023669	0.262991	0.670355
13	C	0.042337	0.244575	0.338174
14	C	0.079394	0.263454	0.337657
15	N	0.023689	0.318379	0.667402
16	N	0.023547	0.207546	0.339756
17	O	0.030614	0.196319	0.374685
18	O	0.030751	0.338211	0.70079
19	C	0.079467	0.318144	0.001566
20	C	0.042408	0.300061	0.001965
21	C	0.023669	0.262991	0.003689
22	C	0.042337	0.244575	0.671507
23	C	0.079394	0.263454	0.67099
24	N	0.023689	0.318379	0.000736
25	N	0.023547	0.207546	0.67309
26	O	0.030614	0.196319	0.708019
27	O	0.030751	0.338211	0.034123
28	C	0.079466	0.818143	0.3349
29	C	0.042408	0.800061	0.335297
30	C	0.023669	0.762991	0.337022
31	C	0.042336	0.744576	0.004841
32	C	0.079395	0.763456	0.004323
33	N	0.02369	0.818379	0.334068
34	N	0.023547	0.707546	0.006425
35	O	0.030614	0.69632	0.041355
36	O	0.030753	0.838214	0.367456
37	C	0.079466	0.818143	0.668232
38	C	0.042408	0.800061	0.668632
39	C	0.023669	0.762991	0.670355
40	C	0.042336	0.744576	0.338174
41	C	0.079395	0.763456	0.337657
42	N	0.02369	0.818379	0.667402
43	N	0.023547	0.707546	0.33976
44	O	0.030614	0.69632	0.374689
45	O	0.030753	0.838214	0.70079
46	C	0.079466	0.818143	0.001566
47	C	0.042408	0.800061	0.001965
48	C	0.023669	0.762991	0.003689
49	C	0.042336	0.744576	0.671507
50	C	0.079395	0.763456	0.67099
51	N	0.02369	0.818379	0.000736
52	N	0.023547	0.707546	0.67309
53	O	0.030614	0.69632	0.708022
54	O	0.030753	0.838214	0.034121
55	O	0.029989	0.194555	0.972734
56	O	0.030218	0.336273	0.298847
57	O	0.029989	0.194555	0.306066
58	O	0.030218	0.336273	0.632181
59	O	0.029989	0.194555	0.6394
60	O	0.030218	0.336273	0.965515
61	O	0.029989	0.694555	0.972734
62	O	0.030219	0.836276	0.298846
63	O	0.029989	0.694555	0.306068
64	O	0.030219	0.836276	0.632178
65	O	0.029989	0.694555	0.6394
66	O	0.030219	0.836276	0.965511
67	C	0.136275	0.319151	0.00252
68	C	0.098783	0.300451	0.336091
69	H	0.092217	0.249537	0.005241
70	H	0.092344	0.344878	0.333679
71	C	0.136275	0.319151	0.335853
72	C	0.098783	0.300451	0.669425
73	H	0.092217	0.249537	0.338574
74	H	0.092344	0.344878	0.667013
75	C	0.136275	0.319151	0.669186
76	C	0.098783	0.300451	0.002758
77	H	0.092217	0.249537	0.671907
78	H	0.092344	0.344878	0.000346
79	C	0.136274	0.81915	0.00252
80	C	0.098784	0.800453	0.336091
81	H	0.092218	0.749538	0.005243
82	H	0.092344	0.844877	0.333678
83	C	0.136274	0.81915	0.335854
84	C	0.098784	0.800453	0.669425
85	H	0.092218	0.749538	0.338577
86	H	0.092344	0.844877	0.667013
87	C	0.136274	0.81915	0.669186
88	C	0.098784	0.800453	0.002758
89	H	0.092218	0.749538	0.671911
90	H	0.092344	0.844877	0.000346
91	N	0.15503	0.354756	0.00254
92	N	0.154945	0.302214	0.00254
93	H	0.164823	0.249405	0.333679
94	O	0.171489	0.194479	0.36746
95	O	0.173428	0.195883	0.29885
96	H	0.165081	0.417483	0.005266
97	O	0.173473	0.479085	0.041391
98	O	0.172317	0.979709	0.972771
99	N	0.15503	0.354756	0.335872
100	N	0.154945	0.302214	0.335873
101	H	0.164823	0.249405	0.667013
102	O	0.171489	0.194479	0.700793
103	O	0.173428	0.195883	0.632185
104	H	0.165081	0.417483	0.338597
105	O	0.173473	0.479085	0.374725
106	O	0.172317	0.979709	0.306105
107	N	0.15503	0.354756	0.669206
108	N	0.154945	0.302214	0.669206
109	H	0.164823	0.249405	0.000346
110	O	0.171489	0.194479	0.034126
111	O	0.173428	0.195883	0.965518
112	H	0.165081	0.417483	0.671931
113	O	0.173473	0.479085	0.708059
114	O	0.172317	0.979709	0.639437
115	N	0.155031	0.854756	0.00254
116	N	0.154945	0.802213	0.00254
117	H	0.164825	0.749407	0.333678
118	O	0.17149	0.694479	0.367456
119	O	0.173428	0.695884	0.298848
120	H	0.165081	0.917482	0.005266
121	O	0.173472	0.979084	0.041391
122	O	0.172316	0.47971	0.972771
123	N	0.155031	0.854756	0.335872
124	N	0.154945	0.802213	0.335873
125	H	0.164825	0.749407	0.667009
126	O	0.17149	0.694479	0.70079
127	O	0.173428	0.695884	0.632181
128	H	0.165081	0.917482	0.338601
129	O	0.173472	0.979084	0.374725
130	O	0.172316	0.47971	0.306105
131	N	0.155031	0.854756	0.669206
132	N	0.154945	0.802213	0.669206
133	H	0.164825	0.749407	0.000343
134	O	0.17149	0.694479	0.034123
135	O	0.173428	0.695884	0.965515
136	H	0.165081	0.917482	0.671931
137	O	0.173472	0.979084	0.708059
138	O	0.172316	0.47971	0.639437
139	C	0.190638	0.373427	0.002516
140	C	0.190549	0.319062	0.002516
141	N	0.207489	0.354672	0.002536
142	C	0.321378	0.13484	0.005759
143	N	0.356945	0.15291	0.005685
144	C	0.37486	0.188478	0.005759
145	N	0.356791	0.205975	0.005693
146	C	0.321223	0.188322	0.005767
147	N	0.303725	0.152756	0.005694
148	C	0.209249	0.300271	0.336091
149	C	0.191558	0.263263	0.3349
150	C	0.209641	0.244287	0.3353
151	C	0.246711	0.262617	0.337022
152	C	0.265126	0.2997	0.00484
153	C	0.246246	0.31788	0.00432
154	H	0.260164	0.344619	0.005238
155	C	0.265383	0.243867	0.337566
156	C	0.274719	0.234177	0.296572
157	C	0.293276	0.215676	0.297621
158	C	0.302707	0.206686	0.005295
159	C	0.293315	0.216412	0.045772
160	C	0.274737	0.234905	0.045762
161	H	0.299961	0.208782	0.267964
162	H	0.299992	0.210021	0.075804
163	N	0.265269	0.244562	0.086534
164	N	0.265378	0.243244	0.255263
165	N	0.191323	0.20725	0.334072
166	N	0.302156	0.317943	0.006422
167	O	0.245481	0.218203	0.10976
168	O	0.313383	0.336237	0.041351
169	O	0.245676	0.216558	0.232504
170	O	0.291729	0.26449	0.109513
171	O	0.315146	0.337372	0.97273
172	O	0.291917	0.262853	0.232211
173	C	0.20943	0.410918	0.336088
174	C	0.246437	0.430235	0.334881
175	C	0.265413	0.467295	0.335278
176	C	0.247082	0.486033	0.337018
177	C	0.209998	0.467363	0.004854
178	C	0.191822	0.430306	0.004335
179	C	0.265833	0.023455	0.337559
180	C	0.275538	0.042481	0.296566
181	C	0.29404	0.079539	0.297614
182	C	0.303015	0.09796	0.005287
183	C	0.293268	0.078843	0.045764
184	C	0.274776	0.041771	0.045755
185	H	0.300949	0.093117	0.267956
186	H	0.299646	0.091911	0.075796
187	H	0.260294	0.417357	0.333647
188	N	0.265101	0.022648	0.086527
189	N	0.266483	0.024072	0.255257
190	N	0.302449	0.486013	0.334035
191	N	0.191757	0.486151	0.006452
192	O	0.291451	0.529221	0.109776
193	O	0.315228	0.478951	0.367416
194	O	0.293177	0.031055	0.232512
195	O	0.245165	0.029181	0.109484
196	O	0.313808	0.979484	0.298807
197	O	0.246882	0.531002	0.23219
198	C	0.486244	0.244319	0.337563
199	C	0.467219	0.234984	0.296568
200	C	0.430163	0.216426	0.297616
201	C	0.411739	0.206994	0.005288
202	C	0.430858	0.216385	0.045766
203	C	0.467929	0.234963	0.045758
204	H	0.416586	0.209743	0.267957
205	H	0.417789	0.209707	0.075798
206	N	0.487052	0.24443	0.08653
207	N	0.48563	0.244327	0.255259
208	O	0.980482	0.264218	0.109757
209	O	0.478646	0.26403	0.232501
210	O	0.480519	0.21797	0.109509
211	O	0.529988	0.194555	0.972734
212	O	0.530219	0.336273	0.298847
213	O	0.978701	0.217789	0.232206
214	C	0.190638	0.373427	0.335849
215	C	0.190549	0.319062	0.335851
216	N	0.207489	0.354672	0.33587
217	C	0.321378	0.13484	0.339091
218	N	0.356945	0.15291	0.339017
219	C	0.37486	0.188478	0.339091
220	N	0.356791	0.205975	0.339027
221	C	0.321223	0.188322	0.339101
222	N	0.303725	0.152756	0.339027
223	C	0.209249	0.300271	0.669425
224	C	0.191558	0.263263	0.668232
225	C	0.209641	0.244287	0.668632
226	C	0.246711	0.262617	0.670355
227	C	0.265126	0.2997	0.338174
228	C	0.246246	0.31788	0.337653
229	H	0.260164	0.344619	0.33857
230	C	0.265383	0.243867	0.670899
231	C	0.274719	0.234177	0.629907
232	C	0.293276	0.215676	0.630955
233	C	0.302707	0.206686	0.338627
234	C	0.293315	0.216412	0.379106
235	C	0.274737	0.234905	0.379096
236	H	0.299961	0.208782	0.601297
237	H	0.299992	0.210021	0.409137
238	N	0.265269	0.244562	0.419866
239	N	0.265378	0.243244	0.588596
240	N	0.191323	0.20725	0.667406
241	N	0.302156	0.317943	0.339756
242	O	0.245481	0.218203	0.443092
243	O	0.313383	0.336237	0.374685
244	O	0.245676	0.216558	0.565837
245	O	0.291729	0.26449	0.442847
246	O	0.315146	0.337372	0.306064
247	O	0.291917	0.262853	0.565545
248	C	0.20943	0.410918	0.669421
249	C	0.246437	0.430235	0.668215
250	C	0.265413	0.467295	0.668612
251	C	0.247082	0.486033	0.670352
252	C	0.209998	0.467363	0.338187
253	C	0.191822	0.430306	0.33767
254	C	0.265833	0.023455	0.670893
255	C	0.275538	0.042481	0.6299
256	C	0.29404	0.079539	0.630948
257	C	0.303015	0.09796	0.338621
258	C	0.293268	0.078843	0.379099
259	C	0.274776	0.041771	0.379089
260	H	0.300949	0.093117	0.60129
261	H	0.299646	0.091911	0.40913
262	H	0.260294	0.417357	0.666979
263	N	0.265101	0.022648	0.41986
264	N	0.266483	0.024072	0.588589
265	N	0.302449	0.486013	0.667369
266	N	0.191757	0.486151	0.339786
267	O	0.291451	0.529221	0.443109
268	O	0.315228	0.478951	0.700749
269	O	0.293177	0.031055	0.565847
270	O	0.245165	0.029181	0.442816
271	O	0.313808	0.979484	0.632141
272	O	0.246882	0.531002	0.565525
273	C	0.486244	0.244319	0.670896
274	C	0.467219	0.234984	0.6299
275	C	0.430163	0.216426	0.630948
276	C	0.411739	0.206994	0.338621
277	C	0.430858	0.216385	0.379099
278	C	0.467929	0.234963	0.379092
279	H	0.416586	0.209743	0.60129
280	H	0.417789	0.209707	0.40913
281	N	0.487052	0.24443	0.419863
282	N	0.48563	0.244327	0.588592
283	O	0.980482	0.264218	0.443089
284	O	0.478646	0.26403	0.565834
285	O	0.480519	0.21797	0.442843
286	O	0.529988	0.194555	0.306066
287	O	0.530219	0.336273	0.632181
288	O	0.978701	0.217789	0.565538
289	C	0.190638	0.373427	0.669183
290	C	0.190549	0.319062	0.669183
291	N	0.207489	0.354672	0.669203
292	C	0.321378	0.13484	0.672424
293	N	0.356945	0.15291	0.672351
294	C	0.37486	0.188478	0.672424
295	N	0.356791	0.205975	0.672361
296	C	0.321223	0.188322	0.672435
297	N	0.303725	0.152756	0.672361
298	C	0.209249	0.300271	0.002758
299	C	0.191558	0.263263	0.001566
300	C	0.209641	0.244287	0.001965
301	C	0.246711	0.262617	0.003689
302	C	0.265126	0.2997	0.671507
303	C	0.246246	0.31788	0.670987
304	H	0.260164	0.344619	0.671904
305	C	0.265383	0.243867	0.004233
306	C	0.274719	0.234177	0.96324
307	C	0.293276	0.215676	0.964289
308	C	0.302707	0.206686	0.671961
309	C	0.293315	0.216412	0.712439
310	C	0.274737	0.234905	0.712429
311	H	0.299961	0.208782	0.93463
312	H	0.299992	0.210021	0.742471
313	N	0.265269	0.244562	0.7532
314	N	0.265378	0.243244	0.921929
315	N	0.191323	0.20725	0.000739
316	N	0.302156	0.317943	0.67309
317	O	0.245481	0.218203	0.776425
318	O	0.313383	0.336237	0.708019
319	O	0.245676	0.216558	0.89917
320	O	0.291729	0.26449	0.77618
321	O	0.315146	0.337372	0.639397
322	O	0.291917	0.262853	0.898878
323	C	0.20943	0.410918	0.002755
324	C	0.246437	0.430235	0.001549
325	C	0.265413	0.467295	0.001945
326	C	0.247082	0.486033	0.003685
327	C	0.209998	0.467363	0.671521
328	C	0.191822	0.430306	0.671004
329	C	0.265833	0.023455	0.004227
330	C	0.275538	0.042481	0.963234
331	C	0.29404	0.079539	0.964282
332	C	0.303015	0.09796	0.671954
333	C	0.293268	0.078843	0.712429
334	C	0.274776	0.041771	0.712422
335	H	0.300949	0.093117	0.934623
336	H	0.299646	0.091911	0.742464
337	H	0.260294	0.417357	0.000313
338	N	0.265101	0.022648	0.753193
339	N	0.266483	0.024072	0.921922
340	N	0.302449	0.486013	0.000702
341	N	0.191757	0.486151	0.67312
342	O	0.291451	0.529221	0.776442
343	O	0.315228	0.478951	0.034082
344	O	0.293177	0.031055	0.899181
345	O	0.245165	0.029181	0.77615
346	O	0.313808	0.979484	0.965474
347	O	0.246882	0.531002	0.898858
348	C	0.486244	0.244319	0.004229
349	C	0.467219	0.234984	0.963234
350	C	0.430163	0.216426	0.964282
351	C	0.411739	0.206994	0.671954
352	C	0.430858	0.216385	0.712433
353	C	0.467929	0.234963	0.712426
354	H	0.416586	0.209743	0.934623
355	H	0.417789	0.209707	0.742464
356	N	0.487052	0.24443	0.753196
357	N	0.48563	0.244327	0.921926
358	O	0.980482	0.264218	0.776422
359	O	0.478646	0.26403	0.899167
360	O	0.480519	0.21797	0.776173
361	O	0.529988	0.194555	0.6394
362	O	0.530219	0.336273	0.965515
363	O	0.978701	0.217789	0.898871
364	C	0.190637	0.873427	0.002516
365	C	0.190551	0.819064	0.002516
366	N	0.207489	0.854672	0.002536
367	C	0.321379	0.634842	0.005759
368	N	0.356946	0.652911	0.005686
369	C	0.37486	0.688477	0.00576
370	N	0.356792	0.705976	0.005693
371	C	0.321224	0.688323	0.005766
372	N	0.303727	0.652757	0.005693
373	C	0.209249	0.80027	0.336091
374	C	0.191558	0.763263	0.334899
375	C	0.209642	0.744289	0.335298
376	C	0.246712	0.76262	0.337022
377	C	0.265127	0.799703	0.00484
378	C	0.246246	0.817879	0.004321
379	H	0.260165	0.844621	0.005239
380	C	0.265384	0.743867	0.337566
381	C	0.27472	0.734178	0.296572
382	C	0.293277	0.715677	0.297621
383	C	0.302707	0.706685	0.005294
384	C	0.293317	0.716414	0.045771
385	C	0.274739	0.734907	0.045762
386	H	0.29996	0.708783	0.267963
387	H	0.299993	0.710022	0.075803
388	N	0.265271	0.744563	0.086533
389	N	0.265378	0.743245	0.255262
390	N	0.191323	0.70725	0.33407
391	N	0.302156	0.817942	0.006423
392	O	0.245484	0.718206	0.10976
393	O	0.313382	0.836236	0.041353
394	O	0.245675	0.716558	0.232504
395	O	0.291731	0.764492	0.109512
396	O	0.315147	0.837374	0.972734
397	O	0.291916	0.762852	0.23221
398	C	0.20943	0.910918	0.336088
399	C	0.246437	0.930235	0.334881
400	C	0.265413	0.967294	0.335278
401	C	0.247083	0.986033	0.337018
402	C	0.209999	0.967365	0.004854
403	C	0.191822	0.930305	0.004335
404	C	0.265833	0.523456	0.337559
405	C	0.275539	0.542481	0.296566
406	C	0.294041	0.57954	0.297614
407	C	0.303014	0.59796	0.005287
408	C	0.29327	0.578844	0.045764
409	C	0.274776	0.541772	0.045755
410	H	0.300948	0.593116	0.267956
411	H	0.299647	0.591911	0.075796
412	H	0.260295	0.917359	0.333647
413	N	0.265102	0.522648	0.086527
414	N	0.266485	0.524074	0.255257
415	N	0.30245	0.986015	0.334035
416	N	0.191757	0.986151	0.006452
417	O	0.29145	0.029219	0.109775
418	O	0.315228	0.978951	0.367416
419	O	0.293177	0.531057	0.232513
420	O	0.245165	0.529181	0.109485
421	O	0.313808	0.479485	0.298807
422	O	0.246881	0.031001	0.23219
423	C	0.486246	0.74432	0.337563
424	C	0.467221	0.734986	0.296568
425	C	0.430162	0.716427	0.297616
426	C	0.41174	0.706994	0.005289
427	C	0.430858	0.716385	0.045766
428	C	0.467929	0.734962	0.045758
429	H	0.416585	0.709745	0.267958
430	H	0.417789	0.709706	0.075798
431	N	0.487053	0.74443	0.08653
432	N	0.485629	0.744328	0.25526
433	O	0.980481	0.764215	0.109758
434	O	0.478647	0.764032	0.232503
435	O	0.480519	0.717968	0.109508
436	O	0.529989	0.694555	0.972734
437	O	0.53022	0.836276	0.298846
438	O	0.978701	0.717792	0.232205
439	C	0.190637	0.873427	0.335849
440	C	0.190551	0.819064	0.335851
441	N	0.207489	0.854672	0.33587
442	C	0.321379	0.634842	0.339091
443	N	0.356946	0.652911	0.339021
444	C	0.37486	0.688477	0.339094
445	N	0.356792	0.705976	0.339027
446	C	0.321224	0.688323	0.339098
447	N	0.303727	0.652757	0.339027
448	C	0.209249	0.80027	0.669425
449	C	0.191558	0.763263	0.668232
450	C	0.209642	0.744289	0.668632
451	C	0.246712	0.76262	0.670355
452	C	0.265127	0.799703	0.338174
453	C	0.246246	0.817879	0.337653
454	H	0.260165	0.844621	0.338574
455	C	0.265384	0.743867	0.670899
456	C	0.27472	0.734178	0.629904
457	C	0.293277	0.715677	0.630955
458	C	0.302707	0.706685	0.338627
459	C	0.293317	0.716414	0.379106
460	C	0.274739	0.734907	0.379096
461	H	0.29996	0.708783	0.601297
462	H	0.299993	0.710022	0.409137
463	N	0.265271	0.744563	0.419866
464	N	0.265378	0.743245	0.588596
465	N	0.191323	0.70725	0.667402
466	N	0.302156	0.817942	0.339756
467	O	0.245484	0.718206	0.443092
468	O	0.313382	0.836236	0.374685
469	O	0.245675	0.716558	0.565837
470	O	0.291731	0.764492	0.442843
471	O	0.315147	0.837374	0.306065
472	O	0.291916	0.762852	0.565545
473	C	0.20943	0.910918	0.669421
474	C	0.246437	0.930235	0.668215
475	C	0.265413	0.967294	0.668612
476	C	0.247083	0.986033	0.670352
477	C	0.209999	0.967365	0.338187
478	C	0.191822	0.930305	0.33767
479	C	0.265833	0.523456	0.670893
480	C	0.275539	0.542481	0.6299
481	C	0.294041	0.57954	0.630948
482	C	0.303014	0.59796	0.338621
483	C	0.29327	0.578844	0.379099
484	C	0.274776	0.541772	0.379089
485	H	0.300948	0.593116	0.60129
486	H	0.299647	0.591911	0.40913
487	H	0.260295	0.917359	0.666979
488	N	0.265102	0.522648	0.41986
489	N	0.266485	0.524074	0.588589
490	N	0.30245	0.986015	0.667369
491	N	0.191757	0.986151	0.339786
492	O	0.29145	0.029219	0.443109
493	O	0.315228	0.978951	0.700749
494	O	0.293177	0.531057	0.565847
495	O	0.245165	0.529181	0.442816
496	O	0.313808	0.479485	0.632141
497	O	0.246881	0.031001	0.565525
498	C	0.486246	0.74432	0.670896
499	C	0.467221	0.734986	0.6299
500	C	0.430162	0.716427	0.630948
501	C	0.41174	0.706994	0.338621
502	C	0.430858	0.716385	0.379099
503	C	0.467929	0.734962	0.379092
504	H	0.416585	0.709745	0.60129
505	H	0.417789	0.709706	0.40913
506	N	0.487053	0.74443	0.419863
507	N	0.485629	0.744328	0.588592
508	O	0.980481	0.764215	0.443092
509	O	0.478647	0.764032	0.565837
510	O	0.480519	0.717968	0.44284
511	O	0.529989	0.694555	0.306068
512	O	0.53022	0.836276	0.632178
513	O	0.978701	0.717792	0.565538
514	C	0.190637	0.873427	0.669183
515	C	0.190551	0.819064	0.669183
516	N	0.207489	0.854672	0.669203
517	C	0.321379	0.634842	0.672424
518	N	0.356946	0.652911	0.672354
519	C	0.37486	0.688477	0.672424
520	N	0.356792	0.705976	0.672361
521	C	0.321224	0.688323	0.672431
522	N	0.303727	0.652757	0.672361
523	C	0.209249	0.80027	0.002758
524	C	0.191558	0.763263	0.001566
525	C	0.209642	0.744289	0.001965
526	C	0.246712	0.76262	0.003689
527	C	0.265127	0.799703	0.671507
528	C	0.246246	0.817879	0.670987
529	H	0.260165	0.844621	0.671907
530	C	0.265384	0.743867	0.004232
531	C	0.27472	0.734178	0.963237
532	C	0.293277	0.715677	0.964289
533	C	0.302707	0.706685	0.671961
534	C	0.293317	0.716414	0.712439
535	C	0.274739	0.734907	0.712429
536	H	0.29996	0.708783	0.93463
537	H	0.299993	0.710022	0.742471
538	N	0.265271	0.744563	0.7532
539	N	0.265378	0.743245	0.921929
540	N	0.191323	0.70725	0.000736
541	N	0.302156	0.817942	0.67309
542	O	0.245484	0.718206	0.776425
543	O	0.313382	0.836236	0.708019
544	O	0.245675	0.716558	0.89917
545	O	0.291731	0.764492	0.776177
546	O	0.315147	0.837374	0.6394
547	O	0.291916	0.762852	0.898878
548	C	0.20943	0.910918	0.002755
549	C	0.246437	0.930235	0.001549
550	C	0.265413	0.967294	0.001945
551	C	0.247083	0.986033	0.003685
552	C	0.209999	0.967365	0.671521
553	C	0.191822	0.930305	0.671
554	C	0.265833	0.523456	0.004227
555	C	0.275539	0.542481	0.963234
556	C	0.294041	0.57954	0.964282
557	C	0.303014	0.59796	0.671954
558	C	0.29327	0.578844	0.712433
559	C	0.274776	0.541772	0.712422
560	H	0.300948	0.593116	0.934623
561	H	0.299647	0.591911	0.742464
562	H	0.260295	0.917359	0.000313
563	N	0.265102	0.522648	0.753193
564	N	0.266485	0.524074	0.921922
565	N	0.30245	0.986015	0.000702
566	N	0.191757	0.986151	0.67312
567	O	0.29145	0.029219	0.776442
568	O	0.315228	0.978951	0.034081
569	O	0.293177	0.531057	0.899181
570	O	0.245165	0.529181	0.77615
571	O	0.313808	0.479485	0.965474
572	O	0.246881	0.031001	0.898855
573	C	0.486246	0.74432	0.00423
574	C	0.467221	0.734986	0.963234
575	C	0.430162	0.716427	0.964282
576	C	0.41174	0.706994	0.671954
577	C	0.430858	0.716385	0.712433
578	C	0.467929	0.734962	0.712426
579	H	0.416585	0.709745	0.934623
580	H	0.417789	0.709706	0.742464
581	N	0.487053	0.74443	0.753196
582	N	0.485629	0.744328	0.921926
583	O	0.980481	0.764215	0.776425
584	O	0.478647	0.764032	0.89917
585	O	0.480519	0.717968	0.776173
586	O	0.529989	0.694555	0.6394
587	O	0.53022	0.836276	0.965511
588	O	0.978701	0.717792	0.898871
589	C	0.690639	0.373427	0.002516
590	N	0.65503	0.354756	0.00254
591	C	0.636274	0.319151	0.00252
592	N	0.654946	0.302214	0.00254
593	C	0.690549	0.319062	0.002516
594	N	0.70749	0.354672	0.002536
595	C	0.821378	0.13484	0.005759
596	N	0.856945	0.15291	0.005685
597	C	0.87486	0.188478	0.005759
598	N	0.856791	0.205975	0.005693
599	C	0.821223	0.188322	0.005767
600	N	0.803725	0.152756	0.005694
601	C	0.709248	0.300271	0.336091
602	C	0.691558	0.263263	0.3349
603	C	0.709641	0.244287	0.3353
604	C	0.74671	0.262617	0.337022
605	C	0.765125	0.2997	0.00484
606	C	0.746247	0.31788	0.00432
607	H	0.760163	0.344619	0.005238
608	C	0.765382	0.243867	0.337566
609	C	0.77472	0.234177	0.296572
610	C	0.793276	0.215676	0.297621
611	C	0.802706	0.206686	0.005295
612	C	0.793314	0.216412	0.045772
613	C	0.774736	0.234905	0.045762
614	H	0.799961	0.208782	0.267964
615	H	0.799991	0.210021	0.075804
616	H	0.664824	0.249405	0.333679
617	N	0.76527	0.244562	0.086534
618	N	0.765379	0.243244	0.255263
619	N	0.691322	0.20725	0.334072
620	N	0.802155	0.317943	0.006422
621	O	0.745481	0.218203	0.10976
622	O	0.813384	0.336237	0.041351
623	O	0.671489	0.194479	0.36746
624	O	0.745676	0.216558	0.232504
625	O	0.79173	0.26449	0.109513
626	O	0.815145	0.337372	0.97273
627	O	0.673428	0.195883	0.29885
628	O	0.791917	0.262853	0.232211
629	C	0.70943	0.410918	0.336088
630	C	0.746437	0.430235	0.334881
631	C	0.765413	0.467295	0.335278
632	C	0.747082	0.486033	0.337018
633	C	0.709997	0.467363	0.004854
634	C	0.691822	0.430306	0.004335
635	H	0.665082	0.417483	0.005266
636	C	0.765833	0.023455	0.337559
637	C	0.775538	0.042481	0.296566
638	C	0.79404	0.079539	0.297614
639	C	0.803015	0.09796	0.005287
640	C	0.793268	0.078843	0.045764
641	C	0.774776	0.041771	0.045755
642	H	0.800949	0.093117	0.267956
643	H	0.799646	0.091911	0.075796
644	H	0.760295	0.417357	0.333647
645	N	0.765101	0.022648	0.086527
646	N	0.766483	0.024072	0.255257
647	N	0.80245	0.486013	0.334035
648	N	0.691756	0.486151	0.006452
649	O	0.79145	0.529221	0.109776
650	O	0.673474	0.479085	0.041391
651	O	0.815227	0.478951	0.367416
652	O	0.793177	0.031055	0.232512
653	O	0.745165	0.029181	0.109484
654	O	0.672316	0.979709	0.972771
655	O	0.813807	0.979484	0.298807
656	O	0.746883	0.531002	0.23219
657	C	0.598784	0.300451	0.336091
658	C	0.579468	0.318144	0.3349
659	C	0.542409	0.300061	0.335298
660	C	0.523668	0.262991	0.337022
661	C	0.542337	0.244575	0.00484
662	C	0.579393	0.263454	0.004322
663	H	0.592217	0.249537	0.005241
664	C	0.986244	0.244319	0.337563
665	C	0.967219	0.234984	0.296568
666	C	0.93016	0.216426	0.297616
667	C	0.911739	0.206994	0.005288
668	C	0.930858	0.216385	0.045766
669	C	0.967929	0.234963	0.045758
670	H	0.916583	0.209743	0.267957
671	H	0.917789	0.209707	0.075798
672	H	0.592343	0.344878	0.333679
673	N	0.987052	0.24443	0.08653
674	N	0.98563	0.244327	0.255259
675	N	0.523689	0.318379	0.334069
676	N	0.523548	0.207546	0.006423
677	O	0.480482	0.264218	0.109757
678	O	0.530614	0.196319	0.041353
679	O	0.530751	0.338211	0.367456
680	O	0.978646	0.26403	0.232501
681	O	0.980519	0.21797	0.109509
682	O	0.478701	0.217789	0.232206
683	C	0.690639	0.373427	0.335849
684	N	0.65503	0.354756	0.335872
685	C	0.636274	0.319151	0.335853
686	N	0.654946	0.302214	0.335873
687	C	0.690549	0.319062	0.335851
688	N	0.70749	0.354672	0.33587
689	C	0.821378	0.13484	0.339091
690	N	0.856945	0.15291	0.339017
691	C	0.87486	0.188478	0.339091
692	N	0.856791	0.205975	0.339027
693	C	0.821223	0.188322	0.339101
694	N	0.803725	0.152756	0.339027
695	C	0.709248	0.300271	0.669425
696	C	0.691558	0.263263	0.668232
697	C	0.709641	0.244287	0.668632
698	C	0.74671	0.262617	0.670355
699	C	0.765125	0.2997	0.338174
700	C	0.746247	0.31788	0.337653
701	H	0.760163	0.344619	0.33857
702	C	0.765382	0.243867	0.670899
703	C	0.77472	0.234177	0.629907
704	C	0.793276	0.215676	0.630955
705	C	0.802706	0.206686	0.338627
706	C	0.793314	0.216412	0.379106
707	C	0.774736	0.234905	0.379096
708	H	0.799961	0.208782	0.601297
709	H	0.799991	0.210021	0.409137
710	H	0.664824	0.249405	0.667013
711	N	0.76527	0.244562	0.419866
712	N	0.765379	0.243244	0.588596
713	N	0.691322	0.20725	0.667406
714	N	0.802155	0.317943	0.339756
715	O	0.745481	0.218203	0.443092
716	O	0.813384	0.336237	0.374685
717	O	0.671489	0.194479	0.700793
718	O	0.745676	0.216558	0.565837
719	O	0.79173	0.26449	0.442847
720	O	0.815145	0.337372	0.306064
721	O	0.673428	0.195883	0.632185
722	O	0.791917	0.262853	0.565545
723	C	0.70943	0.410918	0.669421
724	C	0.746437	0.430235	0.668215
725	C	0.765413	0.467295	0.668612
726	C	0.747082	0.486033	0.670352
727	C	0.709997	0.467363	0.338187
728	C	0.691822	0.430306	0.33767
729	H	0.665082	0.417483	0.338597
730	C	0.765833	0.023455	0.670893
731	C	0.775538	0.042481	0.6299
732	C	0.79404	0.079539	0.630948
733	C	0.803015	0.09796	0.338621
734	C	0.793268	0.078843	0.379099
735	C	0.774776	0.041771	0.379089
736	H	0.800949	0.093117	0.60129
737	H	0.799646	0.091911	0.40913
738	H	0.760295	0.417357	0.666979
739	N	0.765101	0.022648	0.41986
740	N	0.766483	0.024072	0.588589
741	N	0.80245	0.486013	0.667369
742	N	0.691756	0.486151	0.339786
743	O	0.79145	0.529221	0.443109
744	O	0.673474	0.479085	0.374725
745	O	0.815227	0.478951	0.700749
746	O	0.793177	0.031055	0.565847
747	O	0.745165	0.029181	0.442816
748	O	0.672316	0.979709	0.306105
749	O	0.813807	0.979484	0.632141
750	O	0.746883	0.531002	0.565525
751	C	0.598784	0.300451	0.669425
752	C	0.579468	0.318144	0.668232
753	C	0.542409	0.300061	0.668632
754	C	0.523668	0.262991	0.670355
755	C	0.542337	0.244575	0.338174
756	C	0.579393	0.263454	0.337657
757	H	0.592217	0.249537	0.338574
758	C	0.986244	0.244319	0.670896
759	C	0.967219	0.234984	0.6299
760	C	0.93016	0.216426	0.630948
761	C	0.911739	0.206994	0.338621
762	C	0.930858	0.216385	0.379099
763	C	0.967929	0.234963	0.379092
764	H	0.916583	0.209743	0.60129
765	H	0.917789	0.209707	0.40913
766	H	0.592343	0.344878	0.667013
767	N	0.987052	0.24443	0.419863
768	N	0.98563	0.244327	0.588592
769	N	0.523689	0.318379	0.667402
770	N	0.523548	0.207546	0.339756
771	O	0.480482	0.264218	0.443089
772	O	0.530614	0.196319	0.374685
773	O	0.530751	0.338211	0.70079
774	O	0.978646	0.26403	0.565834
775	O	0.980519	0.21797	0.442843
776	O	0.478701	0.217789	0.565538
777	C	0.690639	0.373427	0.669183
778	N	0.65503	0.354756	0.669206
779	C	0.636274	0.319151	0.669186
780	N	0.654946	0.302214	0.669206
781	C	0.690549	0.319062	0.669183
782	N	0.70749	0.354672	0.669203
783	C	0.821378	0.13484	0.672424
784	N	0.856945	0.15291	0.672351
785	C	0.87486	0.188478	0.672424
786	N	0.856791	0.205975	0.672361
787	C	0.821223	0.188322	0.672435
788	N	0.803725	0.152756	0.672361
789	C	0.709248	0.300271	0.002758
790	C	0.691558	0.263263	0.001566
791	C	0.709641	0.244287	0.001965
792	C	0.74671	0.262617	0.003689
793	C	0.765125	0.2997	0.671507
794	C	0.746247	0.31788	0.670987
795	H	0.760163	0.344619	0.671904
796	C	0.765382	0.243867	0.004233
797	C	0.77472	0.234177	0.96324
798	C	0.793276	0.215676	0.964289
799	C	0.802706	0.206686	0.671961
800	C	0.793314	0.216412	0.712439
801	C	0.774736	0.234905	0.712429
802	H	0.799961	0.208782	0.93463
803	H	0.799991	0.210021	0.742471
804	H	0.664824	0.249405	0.000346
805	N	0.76527	0.244562	0.7532
806	N	0.765379	0.243244	0.921929
807	N	0.691322	0.20725	0.000739
808	N	0.802155	0.317943	0.67309
809	O	0.745481	0.218203	0.776425
810	O	0.813384	0.336237	0.708019
811	O	0.671489	0.194479	0.034126
812	O	0.745676	0.216558	0.89917
813	O	0.79173	0.26449	0.77618
814	O	0.815145	0.337372	0.639397
815	O	0.673428	0.195883	0.965518
816	O	0.791917	0.262853	0.898878
817	C	0.70943	0.410918	0.002755
818	C	0.746437	0.430235	0.001549
819	C	0.765413	0.467295	0.001945
820	C	0.747082	0.486033	0.003685
821	C	0.709997	0.467363	0.671521
822	C	0.691822	0.430306	0.671004
823	H	0.665082	0.417483	0.671931
824	C	0.765833	0.023455	0.004227
825	C	0.775538	0.042481	0.963234
826	C	0.79404	0.079539	0.964282
827	C	0.803015	0.09796	0.671954
828	C	0.793268	0.078843	0.712429
829	C	0.774776	0.041771	0.712422
830	H	0.800949	0.093117	0.934623
831	H	0.799646	0.091911	0.742464
832	H	0.760295	0.417357	0.000313
833	N	0.765101	0.022648	0.753193
834	N	0.766483	0.024072	0.921922
835	N	0.80245	0.486013	0.000702
836	N	0.691756	0.486151	0.67312
837	O	0.79145	0.529221	0.776442
838	O	0.673474	0.479085	0.708059
839	O	0.815227	0.478951	0.034082
840	O	0.793177	0.031055	0.899181
841	O	0.745165	0.029181	0.77615
842	O	0.672316	0.979709	0.639437
843	O	0.813807	0.979484	0.965474
844	O	0.746883	0.531002	0.898858
845	C	0.598784	0.300451	0.002758
846	C	0.579468	0.318144	0.001566
847	C	0.542409	0.300061	0.001965
848	C	0.523668	0.262991	0.003689
849	C	0.542337	0.244575	0.671507
850	C	0.579393	0.263454	0.67099
851	H	0.592217	0.249537	0.671907
852	C	0.986244	0.244319	0.004229
853	C	0.967219	0.234984	0.963234
854	C	0.93016	0.216426	0.964282
855	C	0.911739	0.206994	0.671954
856	C	0.930858	0.216385	0.712433
857	C	0.967929	0.234963	0.712426
858	H	0.916583	0.209743	0.934623
859	H	0.917789	0.209707	0.742464
860	H	0.592343	0.344878	0.000346
861	N	0.987052	0.24443	0.753196
862	N	0.98563	0.244327	0.921926
863	N	0.523689	0.318379	0.000736
864	N	0.523548	0.207546	0.67309
865	O	0.480482	0.264218	0.776422
866	O	0.530614	0.196319	0.708019
867	O	0.530751	0.338211	0.034123
868	O	0.978646	0.26403	0.899167
869	O	0.980519	0.21797	0.776173
870	O	0.478701	0.217789	0.898871
871	C	0.690637	0.873427	0.002516
872	N	0.655028	0.854756	0.00254
873	C	0.636274	0.81915	0.00252
874	N	0.654945	0.802213	0.00254
875	C	0.690549	0.819064	0.002516
876	N	0.707488	0.854672	0.002536
877	C	0.82138	0.634842	0.005759
878	N	0.856946	0.652911	0.005686
879	C	0.874861	0.688477	0.00576
880	N	0.856791	0.705976	0.005693
881	C	0.821224	0.688323	0.005766
882	N	0.803727	0.652757	0.005693
883	C	0.709249	0.80027	0.336091
884	C	0.691559	0.763263	0.334899
885	C	0.709643	0.744289	0.335298
886	C	0.746713	0.76262	0.337022
887	C	0.765127	0.799703	0.00484
888	C	0.746246	0.817879	0.004321
889	H	0.760165	0.844621	0.005239
890	C	0.765383	0.743867	0.337566
891	C	0.774719	0.734178	0.296572
892	C	0.793276	0.715677	0.297621
893	C	0.802707	0.706685	0.005294
894	C	0.793316	0.716414	0.045771
895	C	0.774738	0.734907	0.045762
896	H	0.79996	0.708783	0.267963
897	H	0.799993	0.710022	0.075803
898	H	0.664824	0.749407	0.333678
899	N	0.765272	0.744563	0.086533
900	N	0.765378	0.743245	0.255262
901	N	0.691323	0.70725	0.33407
902	N	0.802156	0.817942	0.006423
903	O	0.745484	0.718206	0.10976
904	O	0.813382	0.836236	0.041353
905	O	0.671491	0.694479	0.367456
906	O	0.745675	0.716558	0.232504
907	O	0.791732	0.764492	0.109512
908	O	0.815147	0.837374	0.972734
909	O	0.673429	0.695884	0.298848
910	O	0.791915	0.762852	0.23221
911	C	0.70943	0.910918	0.336088
912	C	0.746436	0.930235	0.334881
913	C	0.765412	0.967294	0.335278
914	C	0.747081	0.986033	0.337018
915	C	0.709999	0.967365	0.004854
916	C	0.69182	0.930305	0.004335
917	H	0.665081	0.917482	0.005266
918	C	0.765832	0.523456	0.337559
919	C	0.775539	0.542481	0.296566
920	C	0.794042	0.57954	0.297614
921	C	0.803014	0.59796	0.005287
922	C	0.79327	0.578844	0.045764
923	C	0.774775	0.541772	0.045755
924	H	0.800948	0.593116	0.267956
925	H	0.799647	0.591911	0.075796
926	H	0.760294	0.917359	0.333647
927	N	0.765102	0.522648	0.086527
928	N	0.766485	0.524074	0.255257
929	N	0.80245	0.986015	0.334035
930	N	0.691757	0.986151	0.006452
931	O	0.79145	0.029219	0.109775
932	O	0.673473	0.979084	0.041391
933	O	0.815228	0.978951	0.367416
934	O	0.793177	0.531057	0.232513
935	O	0.745164	0.529181	0.109485
936	O	0.672316	0.47971	0.972771
937	O	0.813809	0.479485	0.298807
938	O	0.746881	0.031001	0.23219
939	C	0.598784	0.800453	0.336091
940	C	0.579467	0.818143	0.3349
941	C	0.542408	0.800061	0.335297
942	C	0.523668	0.762991	0.337022
943	C	0.542337	0.744576	0.004841
944	C	0.579395	0.763456	0.004323
945	H	0.592217	0.749538	0.005243
946	C	0.986246	0.74432	0.337563
947	C	0.967221	0.734986	0.296568
948	C	0.930162	0.716427	0.297616
949	C	0.91174	0.706994	0.005289
950	C	0.930857	0.716385	0.045766
951	C	0.96793	0.734962	0.045758
952	H	0.916586	0.709745	0.267958
953	H	0.917789	0.709706	0.075798
954	H	0.592344	0.844877	0.333678
955	N	0.987053	0.74443	0.08653
956	N	0.985629	0.744328	0.25526
957	N	0.523689	0.818379	0.334068
958	N	0.523547	0.707546	0.006425
959	O	0.480481	0.764215	0.109758
960	O	0.530614	0.69632	0.041355
961	O	0.530752	0.838214	0.367456
962	O	0.978646	0.764032	0.232503
963	O	0.980519	0.717968	0.109508
964	O	0.478701	0.717792	0.232205
965	C	0.690637	0.873427	0.335849
966	N	0.655028	0.854756	0.335872
967	C	0.636274	0.81915	0.335854
968	N	0.654945	0.802213	0.335873
969	C	0.690549	0.819064	0.335851
970	N	0.707488	0.854672	0.33587
971	C	0.82138	0.634842	0.339091
972	N	0.856946	0.652911	0.339021
973	C	0.874861	0.688477	0.339094
974	N	0.856791	0.705976	0.339027
975	C	0.821224	0.688323	0.339098
976	N	0.803727	0.652757	0.339027
977	C	0.709249	0.80027	0.669425
978	C	0.691559	0.763263	0.668232
979	C	0.709643	0.744289	0.668632
980	C	0.746713	0.76262	0.670355
981	C	0.765127	0.799703	0.338174
982	C	0.746246	0.817879	0.337653
983	H	0.760165	0.844621	0.338574
984	C	0.765383	0.743867	0.670899
985	C	0.774719	0.734178	0.629904
986	C	0.793276	0.715677	0.630955
987	C	0.802707	0.706685	0.338627
988	C	0.793316	0.716414	0.379106
989	C	0.774738	0.734907	0.379096
990	H	0.79996	0.708783	0.601297
991	H	0.799993	0.710022	0.409137
992	H	0.664824	0.749407	0.667009
993	N	0.765272	0.744563	0.419866
994	N	0.765378	0.743245	0.588596
995	N	0.691323	0.70725	0.667402
996	N	0.802156	0.817942	0.339756
997	O	0.745484	0.718206	0.443092
998	O	0.813382	0.836236	0.374685
999	O	0.671491	0.694479	0.70079
1000	O	0.745675	0.716558	0.565837
1001	O	0.791732	0.764492	0.442843
1002	O	0.815147	0.837374	0.306065
1003	O	0.673429	0.695884	0.632181
1004	O	0.791915	0.762852	0.565545
1005	C	0.70943	0.910918	0.669421
1006	C	0.746436	0.930235	0.668215
1007	C	0.765412	0.967294	0.668612
1008	C	0.747081	0.986033	0.670352
1009	C	0.709999	0.967365	0.338187
1010	C	0.69182	0.930305	0.33767
1011	H	0.665081	0.917482	0.338601
1012	C	0.765832	0.523456	0.670893
1013	C	0.775539	0.542481	0.6299
1014	C	0.794042	0.57954	0.630948
1015	C	0.803014	0.59796	0.338621
1016	C	0.79327	0.578844	0.379099
1017	C	0.774775	0.541772	0.379089
1018	H	0.800948	0.593116	0.60129
1019	H	0.799647	0.591911	0.40913
1020	H	0.760294	0.917359	0.666979
1021	N	0.765102	0.522648	0.41986
1022	N	0.766485	0.524074	0.588589
1023	N	0.80245	0.986015	0.667369
1024	N	0.691757	0.986151	0.339786
1025	O	0.79145	0.029219	0.443109
1026	O	0.673473	0.979084	0.374725
1027	O	0.815228	0.978951	0.700749
1028	O	0.793177	0.531057	0.565847
1029	O	0.745164	0.529181	0.442816
1030	O	0.672316	0.47971	0.306105
1031	O	0.813809	0.479485	0.632141
1032	O	0.746881	0.031001	0.565525
1033	C	0.598784	0.800453	0.669425
1034	C	0.579467	0.818143	0.668232
1035	C	0.542408	0.800061	0.668632
1036	C	0.523668	0.762991	0.670355
1037	C	0.542337	0.744576	0.338174
1038	C	0.579395	0.763456	0.337657
1039	H	0.592217	0.749538	0.338577
1040	C	0.986246	0.74432	0.670896
1041	C	0.967221	0.734986	0.6299
1042	C	0.930162	0.716427	0.630948
1043	C	0.91174	0.706994	0.338621
1044	C	0.930857	0.716385	0.379099
1045	C	0.96793	0.734962	0.379092
1046	H	0.916586	0.709745	0.60129
1047	H	0.917789	0.709706	0.40913
1048	H	0.592344	0.844877	0.667013
1049	N	0.987053	0.74443	0.419863
1050	N	0.985629	0.744328	0.588592
1051	N	0.523689	0.818379	0.667402
1052	N	0.523547	0.707546	0.33976
1053	O	0.480481	0.764215	0.443092
1054	O	0.530614	0.69632	0.374689
1055	O	0.530752	0.838214	0.70079
1056	O	0.978646	0.764032	0.565837
1057	O	0.980519	0.717968	0.44284
1058	O	0.478701	0.717792	0.565538
1059	C	0.690637	0.873427	0.669183
1060	N	0.655028	0.854756	0.669206
1061	C	0.636274	0.81915	0.669186
1062	N	0.654945	0.802213	0.669206
1063	C	0.690549	0.819064	0.669183
1064	N	0.707488	0.854672	0.669203
1065	C	0.82138	0.634842	0.672424
1066	N	0.856946	0.652911	0.672354
1067	C	0.874861	0.688477	0.672424
1068	N	0.856791	0.705976	0.672361
1069	C	0.821224	0.688323	0.672431
1070	N	0.803727	0.652757	0.672361
1071	C	0.709249	0.80027	0.002758
1072	C	0.691559	0.763263	0.001566
1073	C	0.709643	0.744289	0.001965
1074	C	0.746713	0.76262	0.003689
1075	C	0.765127	0.799703	0.671507
1076	C	0.746246	0.817879	0.670987
1077	H	0.760165	0.844621	0.671907
1078	C	0.765383	0.743867	0.004232
1079	C	0.774719	0.734178	0.963237
1080	C	0.793276	0.715677	0.964289
1081	C	0.802707	0.706685	0.671961
1082	C	0.793316	0.716414	0.712439
1083	C	0.774738	0.734907	0.712429
1084	H	0.79996	0.708783	0.93463
1085	H	0.799993	0.710022	0.742471
1086	H	0.664824	0.749407	0.000343
1087	N	0.765272	0.744563	0.7532
1088	N	0.765378	0.743245	0.921929
1089	N	0.691323	0.70725	0.000736
1090	N	0.802156	0.817942	0.67309
1091	O	0.745484	0.718206	0.776425
1092	O	0.813382	0.836236	0.708019
1093	O	0.671491	0.694479	0.034123
1094	O	0.745675	0.716558	0.89917
1095	O	0.791732	0.764492	0.776177
1096	O	0.815147	0.837374	0.6394
1097	O	0.673429	0.695884	0.965515
1098	O	0.791915	0.762852	0.898878
1099	C	0.70943	0.910918	0.002755
1100	C	0.746436	0.930235	0.001549
1101	C	0.765412	0.967294	0.001945
1102	C	0.747081	0.986033	0.003685
1103	C	0.709999	0.967365	0.671521
1104	C	0.69182	0.930305	0.671
1105	H	0.665081	0.917482	0.671931
1106	C	0.765832	0.523456	0.004227
1107	C	0.775539	0.542481	0.963234
1108	C	0.794042	0.57954	0.964282
1109	C	0.803014	0.59796	0.671954
1110	C	0.79327	0.578844	0.712433
1111	C	0.774775	0.541772	0.712422
1112	H	0.800948	0.593116	0.934623
1113	H	0.799647	0.591911	0.742464
1114	H	0.760294	0.917359	0.000313
1115	N	0.765102	0.522648	0.753193
1116	N	0.766485	0.524074	0.921922
1117	N	0.80245	0.986015	0.000702
1118	N	0.691757	0.986151	0.67312
1119	O	0.79145	0.029219	0.776442
1120	O	0.673473	0.979084	0.708059
1121	O	0.815228	0.978951	0.034081
1122	O	0.793177	0.531057	0.899181
1123	O	0.745164	0.529181	0.77615
1124	O	0.672316	0.47971	0.639437
1125	O	0.813809	0.479485	0.965474
1126	O	0.746881	0.031001	0.898855
1127	C	0.598784	0.800453	0.002758
1128	C	0.579467	0.818143	0.001566
1129	C	0.542408	0.800061	0.001965
1130	C	0.523668	0.762991	0.003689
1131	C	0.542337	0.744576	0.671507
1132	C	0.579395	0.763456	0.67099
1133	H	0.592217	0.749538	0.671911
1134	C	0.986246	0.74432	0.00423
1135	C	0.967221	0.734986	0.963234
1136	C	0.930162	0.716427	0.964282
1137	C	0.91174	0.706994	0.671954
1138	C	0.930857	0.716385	0.712433
1139	C	0.96793	0.734962	0.712426
1140	H	0.916586	0.709745	0.934623
1141	H	0.917789	0.709706	0.742464
1142	H	0.592344	0.844877	0.000346
1143	N	0.987053	0.74443	0.753196
1144	N	0.985629	0.744328	0.921926
1145	N	0.523689	0.818379	0.000736
1146	N	0.523547	0.707546	0.67309
1147	O	0.480481	0.764215	0.776425
1148	O	0.530614	0.69632	0.708022
1149	O	0.530752	0.838214	0.034121
1150	O	0.978646	0.764032	0.89917
1151	O	0.980519	0.717968	0.776173
1152	O	0.478701	0.717792	0.898871
