data_C492H336N96_2018-02-15_10:43:58
#******************************************
#
# CIF file created by Zeo++
# Zeo++ is an open source package to
# analyze microporous materials
#
#*******************************************

_cell_length_a		34.8521   
_cell_length_b		34.8522   
_cell_length_c		29.2938   
_cell_angle_alpha		90   
_cell_angle_beta		90   
_cell_angle_gamma		89.9979   

_symmetry_space_group_name_H-M		'P1'
_symmetry_Int_Tables_number		1
_symmetry_cell_setting		Monoclinic

loop_
_symmetry_equiv_pos_as_xyz
'+x,+y,+z'

loop_
_atom_site_label
_atom_site_type_symbol
_atom_site_fract_x
_atom_site_fract_y
_atom_site_fract_z
1	C	0.009898	0.437534	0.015753
2	C	0.010786	0.086686	0.019992
3	C	0.472447	0.511489	0.051333
4	C	0.474051	0.510657	0.099749
5	C	0.046627	0.011539	0.098736
6	C	0.047282	0.011645	0.050297
7	C	0.11667	0.013331	0.101528
8	C	0.119177	0.012162	0.053418
9	C	0.084138	0.012249	0.028487
10	C	0.435143	0.511613	0.030531
11	C	0.400804	0.510606	0.056739
12	C	0.404029	0.509452	0.10457
13	H	0.010931	0.434914	0.050485
14	H	0.013138	0.087759	0.054759
15	C	0.009593	0.012038	0.023723
16	N	0.154185	0.014551	0.033568
17	N	0.014732	0.15687	0.014377
18	N	0.364568	0.510138	0.041865
19	C	0.510073	0.304119	0.031129
20	N	0.482621	0.283063	0.052822
21	N	0.978633	0.245747	0.048521
22	C	0.509409	0.344019	0.037315
23	H	0.505415	0.354784	0.068325
24	C	0.302219	0.510184	0.012684
25	C	0.222442	0.502595	0.029653
26	N	0.250421	0.496061	0.061207
27	N	0.287224	0.499588	0.053617
28	C	0.184956	0.496012	0.045085
29	H	0.182569	0.477322	0.070702
30	C	0.002466	0.223528	0.022974
31	C	0.009897	0.937532	0.015754
32	C	0.010788	0.586687	0.019992
33	C	0.472446	0.01149	0.051333
34	C	0.474052	0.010655	0.099749
35	C	0.046627	0.511541	0.098736
36	C	0.047282	0.511644	0.050297
37	C	0.11667	0.513331	0.101527
38	C	0.119177	0.512161	0.053418
39	C	0.084138	0.51225	0.028487
40	C	0.435142	0.011613	0.030531
41	C	0.400806	0.010603	0.056739
42	C	0.404031	0.009453	0.10457
43	H	0.010933	0.934912	0.050485
44	H	0.013138	0.587757	0.054759
45	C	0.009594	0.512037	0.023723
46	N	0.154185	0.514551	0.033567
47	N	0.014732	0.656869	0.014378
48	N	0.36457	0.010139	0.041865
49	C	0.510075	0.804117	0.03113
50	N	0.48262	0.783062	0.052822
51	N	0.978635	0.745747	0.048521
52	C	0.509408	0.84402	0.037315
53	H	0.505413	0.854785	0.068326
54	C	0.302218	0.010182	0.012685
55	C	0.222442	0.002592	0.029653
56	N	0.250421	0.996062	0.061207
57	N	0.287223	0.999588	0.053618
58	C	0.184956	0.99601	0.045085
59	H	0.182569	0.97732	0.070702
60	C	0.002468	0.723528	0.022975
61	C	0.509896	0.437534	0.015753
62	C	0.510787	0.086686	0.019992
63	C	0.972446	0.511489	0.051333
64	C	0.974052	0.510657	0.099749
65	C	0.546628	0.011539	0.098736
66	C	0.547282	0.011645	0.050297
67	C	0.616672	0.013331	0.101528
68	C	0.619176	0.012162	0.053418
69	C	0.584137	0.012249	0.028487
70	C	0.935142	0.511613	0.030531
71	C	0.900806	0.510606	0.056739
72	C	0.904031	0.509452	0.10457
73	H	0.510932	0.434914	0.050485
74	H	0.51314	0.087759	0.054759
75	C	0.509594	0.012038	0.023723
76	N	0.654187	0.014551	0.033568
77	N	0.514733	0.15687	0.014377
78	N	0.86457	0.510138	0.041865
79	C	0.010075	0.304119	0.031129
80	N	0.98262	0.283063	0.052822
81	N	0.478634	0.245747	0.048521
82	C	0.009408	0.344019	0.037315
83	H	0.005416	0.354784	0.068325
84	C	0.802218	0.510184	0.012684
85	C	0.722444	0.502595	0.029653
86	N	0.750422	0.496061	0.061207
87	N	0.787226	0.499588	0.053617
88	C	0.684957	0.496012	0.045085
89	H	0.68257	0.477322	0.070702
90	C	0.502467	0.223528	0.022974
91	C	0.509898	0.937532	0.015754
92	C	0.510786	0.586687	0.019992
93	C	0.972447	0.01149	0.051333
94	C	0.974051	0.010655	0.099749
95	C	0.546629	0.511541	0.098736
96	C	0.547283	0.511644	0.050297
97	C	0.61667	0.513331	0.101527
98	C	0.619178	0.512161	0.053418
99	C	0.584139	0.51225	0.028487
100	C	0.935141	0.011613	0.030531
101	C	0.900805	0.010603	0.056739
102	C	0.90403	0.009453	0.10457
103	H	0.510931	0.934912	0.050485
104	H	0.513139	0.587757	0.054759
105	C	0.509592	0.512037	0.023723
106	N	0.654186	0.514551	0.033567
107	N	0.514732	0.656869	0.014378
108	N	0.864569	0.010139	0.041865
109	C	0.010074	0.804117	0.03113
110	N	0.982619	0.783062	0.052822
111	N	0.478633	0.745747	0.048521
112	C	0.00941	0.84402	0.037315
113	H	0.005415	0.854785	0.068326
114	C	0.802219	0.010182	0.012685
115	C	0.722443	0.002592	0.029653
116	N	0.750421	0.996062	0.061207
117	N	0.787225	0.999588	0.053618
118	C	0.684956	0.99601	0.045085
119	H	0.682569	0.97732	0.070702
120	C	0.502466	0.723528	0.022975
121	C	0.009094	0.05004	0.331049
122	C	0.006991	0.049942	0.282669
123	C	0.007664	0.477305	0.280577
124	C	0.009194	0.475113	0.328943
125	C	0.0094	0.403461	0.322277
126	C	0.008137	0.407326	0.274515
127	C	0.007155	0.443534	0.25398
128	C	0.005983	0.084819	0.25816
129	C	0.007416	0.120113	0.280877
130	C	0.009502	0.121941	0.328891
131	C	0.081187	0.012522	0.123798
132	C	0.439978	0.509639	0.125778
133	H	0.380013	0.508631	0.124755
134	H	0.441034	0.508936	0.160689
135	H	0.080803	0.013142	0.158754
136	H	0.140935	0.01507	0.121094
137	H	0.085497	0.012689	0.326951
138	H	0.432908	0.512166	0.329081
139	H	0.007739	0.383583	0.25386
140	H	0.006033	0.444994	0.21911
141	H	0.004867	0.084808	0.223222
142	H	0.0078	0.144724	0.261783
143	C	0.010598	0.510984	0.125344
144	H	0.010432	0.036346	0.14738
145	H	0.011193	0.485422	0.146972
146	C	0.00635	0.014155	0.255584
147	H	0.031018	0.514861	0.232493
148	H	0.48014	0.014352	0.23505
149	N	0.010406	0.366924	0.002924
150	C	0.002466	0.223528	0.356307
151	C	0.031759	0.242999	0.33233
152	C	0.536075	0.283441	0.335987
153	H	0.048885	0.227833	0.310379
154	C	0.566859	0.302928	0.309557
155	H	0.58576	0.282684	0.292178
156	H	0.084492	0.320287	0.332415
157	H	0.554153	0.321458	0.283625
158	C	0.99192	0.186112	0.345209
159	H	0.967207	0.183199	0.328514
160	C	0.27527	0.517546	0.310884
161	C	0.235072	0.51398	0.318789
162	H	0.285045	0.525523	0.279328
163	C	0.2074	0.521202	0.281227
164	H	0.221679	0.528145	0.249088
165	H	0.188835	0.045269	0.29014
166	H	0.189771	0.495748	0.275636
167	C	0.342099	0.513033	0.007188
168	H	0.353329	0.517928	0.309921
169	C	0.009094	0.05004	0.664382
170	C	0.006991	0.049942	0.616003
171	C	0.007664	0.477305	0.613911
172	C	0.009194	0.475113	0.662276
173	C	0.009898	0.437534	0.349087
174	C	0.0094	0.403461	0.655609
175	C	0.008137	0.407326	0.607848
176	C	0.007155	0.443534	0.587315
177	C	0.005983	0.084819	0.591493
178	C	0.007416	0.120113	0.614211
179	C	0.009502	0.121941	0.662225
180	C	0.010786	0.086686	0.353327
181	C	0.472447	0.511489	0.384668
182	C	0.474051	0.510657	0.433081
183	C	0.046627	0.011539	0.43207
184	C	0.047282	0.011645	0.38363
185	C	0.081187	0.012522	0.457134
186	C	0.11667	0.013331	0.434863
187	C	0.119177	0.012162	0.386754
188	C	0.084138	0.012249	0.36182
189	C	0.435143	0.511613	0.363865
190	C	0.400804	0.510606	0.390072
191	C	0.404029	0.509452	0.437904
192	C	0.439978	0.509639	0.45911
193	H	0.380013	0.508631	0.458089
194	H	0.441034	0.508936	0.494022
195	H	0.080803	0.013142	0.492086
196	H	0.140935	0.01507	0.454427
197	H	0.085497	0.012689	0.660286
198	H	0.432908	0.512166	0.662416
199	H	0.010931	0.434914	0.383818
200	H	0.007739	0.383583	0.587195
201	H	0.006033	0.444994	0.552444
202	H	0.013138	0.087759	0.388092
203	H	0.004867	0.084808	0.556557
204	H	0.0078	0.144724	0.595118
205	C	0.009593	0.012038	0.357058
206	C	0.010598	0.510984	0.458677
207	H	0.010432	0.036346	0.480715
208	H	0.011193	0.485422	0.480306
209	C	0.00635	0.014155	0.588919
210	H	0.031018	0.514861	0.565825
211	H	0.48014	0.014352	0.568386
212	N	0.154185	0.014551	0.3669
213	N	0.014732	0.15687	0.347711
214	N	0.010406	0.366924	0.336258
215	N	0.364568	0.510138	0.375198
216	C	0.002466	0.223528	0.689643
217	C	0.031759	0.242999	0.665666
218	C	0.536075	0.283441	0.669322
219	C	0.510073	0.304119	0.364462
220	N	0.482621	0.283063	0.386156
221	H	0.048885	0.227833	0.643712
222	N	0.978633	0.245747	0.381855
223	C	0.566859	0.302928	0.642889
224	H	0.58576	0.282684	0.625514
225	H	0.084492	0.320287	0.665747
226	H	0.554153	0.321458	0.616959
227	C	0.99192	0.186112	0.678542
228	H	0.967207	0.183199	0.661849
229	C	0.509409	0.344019	0.370648
230	H	0.505415	0.354784	0.401658
231	C	0.302219	0.510184	0.346018
232	C	0.27527	0.517546	0.644217
233	C	0.235072	0.51398	0.652123
234	C	0.222442	0.502595	0.362988
235	N	0.250421	0.496061	0.39454
236	H	0.285045	0.525523	0.612661
237	N	0.287224	0.499588	0.386952
238	C	0.2074	0.521202	0.614559
239	H	0.221679	0.528145	0.582423
240	H	0.188835	0.045269	0.623472
241	H	0.189771	0.495748	0.608971
242	C	0.342099	0.513033	0.340521
243	H	0.353329	0.517928	0.643255
244	C	0.184956	0.496012	0.378417
245	H	0.182569	0.477322	0.404037
246	C	0.009094	0.05004	0.997715
247	C	0.006991	0.049942	0.949336
248	C	0.007664	0.477305	0.947244
249	C	0.009194	0.475113	0.995612
250	C	0.009898	0.437534	0.68242
251	C	0.0094	0.403461	0.988945
252	C	0.008137	0.407326	0.941181
253	C	0.007155	0.443534	0.920647
254	C	0.005983	0.084819	0.924829
255	C	0.007416	0.120113	0.947544
256	C	0.009502	0.121941	0.995557
257	C	0.010786	0.086686	0.68666
258	C	0.472447	0.511489	0.718001
259	C	0.474051	0.510657	0.766417
260	C	0.046627	0.011539	0.765403
261	C	0.047282	0.011645	0.716963
262	C	0.081187	0.012522	0.790467
263	C	0.11667	0.013331	0.768196
264	C	0.119177	0.012162	0.720087
265	C	0.084138	0.012249	0.695153
266	C	0.435143	0.511613	0.697198
267	C	0.400804	0.510606	0.723405
268	C	0.404029	0.509452	0.771237
269	C	0.439978	0.509639	0.792446
270	H	0.380013	0.508631	0.791422
271	H	0.441034	0.508936	0.827358
272	H	0.080803	0.013142	0.825423
273	H	0.140935	0.01507	0.787763
274	H	0.085497	0.012689	0.993618
275	H	0.432908	0.512166	0.995749
276	H	0.010931	0.434914	0.717154
277	H	0.007739	0.383583	0.920528
278	H	0.006033	0.444994	0.885777
279	H	0.013138	0.087759	0.721425
280	H	0.004867	0.084808	0.88989
281	H	0.0078	0.144724	0.928451
282	C	0.009593	0.012038	0.690391
283	C	0.010598	0.510984	0.792013
284	H	0.010432	0.036346	0.814048
285	H	0.011193	0.485422	0.813639
286	C	0.00635	0.014155	0.922252
287	H	0.031018	0.514861	0.899162
288	H	0.48014	0.014352	0.901719
289	N	0.154185	0.014551	0.700236
290	N	0.014732	0.15687	0.681044
291	N	0.010406	0.366924	0.669591
292	N	0.364568	0.510138	0.708535
293	C	0.031759	0.242999	0.998998
294	C	0.536075	0.283441	0.002654
295	C	0.510073	0.304119	0.697795
296	N	0.482621	0.283063	0.719489
297	H	0.048885	0.227833	0.977045
298	N	0.978633	0.245747	0.715188
299	C	0.566859	0.302928	0.976226
300	H	0.58576	0.282684	0.958847
301	H	0.084492	0.320287	0.999084
302	H	0.554153	0.321458	0.950292
303	C	0.99192	0.186112	0.011875
304	H	0.967207	0.183199	0.995182
305	C	0.509409	0.344019	0.703981
306	H	0.505415	0.354784	0.734994
307	C	0.302219	0.510184	0.679351
308	C	0.27527	0.517546	0.97755
309	C	0.235072	0.51398	0.985456
310	C	0.222442	0.502595	0.69632
311	N	0.250421	0.496061	0.727873
312	H	0.285045	0.525523	0.945994
313	N	0.287224	0.499588	0.720285
314	C	0.2074	0.521202	0.947896
315	H	0.221679	0.528145	0.915756
316	H	0.188835	0.045269	0.956809
317	H	0.189771	0.495748	0.942304
318	C	0.342099	0.513033	0.673855
319	H	0.353329	0.517928	0.976588
320	C	0.184956	0.496012	0.711754
321	H	0.182569	0.477322	0.73737
322	C	0.009093	0.550038	0.331049
323	C	0.00699	0.54994	0.282669
324	C	0.007666	0.977303	0.280577
325	C	0.009195	0.975111	0.328943
326	C	0.009402	0.903462	0.322277
327	C	0.008139	0.907327	0.274515
328	C	0.007157	0.943531	0.25398
329	C	0.005985	0.584819	0.25816
330	C	0.007418	0.620111	0.280877
331	C	0.009501	0.621942	0.328892
332	C	0.081187	0.512522	0.123798
333	C	0.43998	0.009639	0.125778
334	H	0.380012	0.008629	0.124755
335	H	0.441036	0.008936	0.160689
336	H	0.080803	0.513142	0.158754
337	H	0.140935	0.51507	0.121094
338	H	0.085497	0.512689	0.326951
339	H	0.432906	0.012168	0.329081
340	H	0.007738	0.883584	0.253861
341	H	0.006035	0.944995	0.219111
342	H	0.004866	0.584808	0.223222
343	H	0.007799	0.644723	0.261784
344	C	0.010597	0.010985	0.125344
345	H	0.010434	0.536346	0.14738
346	H	0.011192	0.985423	0.146972
347	C	0.006352	0.514155	0.255583
348	H	0.031019	0.01486	0.232493
349	H	0.480142	0.514353	0.23505
350	N	0.010405	0.866922	0.002928
351	C	0.002468	0.723528	0.356307
352	C	0.03176	0.742999	0.332331
353	C	0.536074	0.783441	0.335989
354	H	0.048886	0.727832	0.31038
355	C	0.566861	0.802929	0.309559
356	H	0.585759	0.782683	0.292181
357	H	0.084492	0.820285	0.332418
358	H	0.554152	0.821459	0.283627
359	C	0.991919	0.686113	0.345209
360	H	0.967209	0.683197	0.328515
361	C	0.27527	0.017546	0.310884
362	C	0.235072	0.01398	0.318789
363	H	0.285045	0.025523	0.279328
364	C	0.2074	0.021202	0.281227
365	H	0.221679	0.028145	0.249088
366	H	0.188835	0.545269	0.29014
367	H	0.189771	0.995749	0.275636
368	C	0.3421	0.013033	0.007188
369	H	0.35333	0.017929	0.309921
370	C	0.009093	0.550038	0.664382
371	C	0.00699	0.54994	0.616003
372	C	0.007666	0.977303	0.613911
373	C	0.009195	0.975111	0.662276
374	C	0.009897	0.937532	0.349087
375	C	0.009402	0.903462	0.655612
376	C	0.008139	0.907327	0.607848
377	C	0.007157	0.943531	0.587315
378	C	0.005985	0.584819	0.591493
379	C	0.007418	0.620111	0.614211
380	C	0.009501	0.621942	0.662225
381	C	0.010788	0.586687	0.353327
382	C	0.472446	0.01149	0.384668
383	C	0.474052	0.010655	0.433081
384	C	0.046627	0.511541	0.43207
385	C	0.047282	0.511644	0.38363
386	C	0.081187	0.512522	0.45713
387	C	0.11667	0.513331	0.434863
388	C	0.119177	0.512161	0.38675
389	C	0.084138	0.51225	0.36182
390	C	0.435142	0.011613	0.363865
391	C	0.400806	0.010603	0.390072
392	C	0.404031	0.009453	0.437904
393	C	0.43998	0.009639	0.45911
394	H	0.380012	0.008629	0.458089
395	H	0.441036	0.008936	0.494022
396	H	0.080803	0.513142	0.492086
397	H	0.140935	0.51507	0.454427
398	H	0.085497	0.512689	0.660286
399	H	0.432906	0.012168	0.662416
400	H	0.010933	0.934912	0.383818
401	H	0.007738	0.883584	0.587195
402	H	0.006035	0.944995	0.552444
403	H	0.013138	0.587757	0.388092
404	H	0.004866	0.584808	0.556557
405	H	0.007799	0.644723	0.595118
406	C	0.009594	0.512037	0.357058
407	C	0.010597	0.010985	0.458677
408	H	0.010434	0.536346	0.480712
409	H	0.011192	0.985423	0.480306
410	C	0.006352	0.514155	0.588919
411	H	0.031019	0.01486	0.565829
412	H	0.480142	0.514353	0.568386
413	N	0.154185	0.514551	0.3669
414	N	0.014732	0.656869	0.347711
415	N	0.010405	0.866922	0.336258
416	N	0.36457	0.010139	0.375198
417	C	0.002468	0.723528	0.689643
418	C	0.03176	0.742999	0.665666
419	C	0.536074	0.783441	0.669322
420	C	0.510075	0.804117	0.364462
421	N	0.48262	0.783062	0.386156
422	H	0.048886	0.727832	0.643716
423	N	0.978635	0.745747	0.381855
424	C	0.566861	0.802929	0.642893
425	H	0.585759	0.782683	0.625514
426	H	0.084492	0.820285	0.665751
427	H	0.554152	0.821459	0.616959
428	C	0.991919	0.686113	0.678542
429	H	0.967209	0.683197	0.661849
430	C	0.509408	0.84402	0.370648
431	H	0.505413	0.854785	0.401661
432	C	0.302218	0.010182	0.346018
433	C	0.27527	0.017546	0.644217
434	C	0.235072	0.01398	0.652123
435	C	0.222442	0.002592	0.362988
436	N	0.250421	0.996062	0.39454
437	H	0.285045	0.025523	0.612661
438	N	0.287223	0.999588	0.386952
439	C	0.2074	0.021202	0.614559
440	H	0.221679	0.028145	0.582423
441	H	0.188835	0.545269	0.623476
442	H	0.189771	0.995749	0.608971
443	C	0.3421	0.013033	0.340521
444	H	0.35333	0.017929	0.643255
445	C	0.184956	0.99601	0.378417
446	H	0.182569	0.97732	0.404037
447	C	0.009093	0.550038	0.997715
448	C	0.00699	0.54994	0.949336
449	C	0.007666	0.977303	0.947244
450	C	0.009195	0.975111	0.995612
451	C	0.009897	0.937532	0.68242
452	C	0.009402	0.903462	0.988945
453	C	0.008139	0.907327	0.941184
454	C	0.007157	0.943531	0.920647
455	C	0.005985	0.584819	0.924829
456	C	0.007418	0.620111	0.947544
457	C	0.009501	0.621942	0.995557
458	C	0.010788	0.586687	0.68666
459	C	0.472446	0.01149	0.718001
460	C	0.474052	0.010655	0.766417
461	C	0.046627	0.511541	0.765403
462	C	0.047282	0.511644	0.716963
463	C	0.081187	0.512522	0.790467
464	C	0.11667	0.513331	0.768196
465	C	0.119177	0.512161	0.720087
466	C	0.084138	0.51225	0.695153
467	C	0.435142	0.011613	0.697198
468	C	0.400806	0.010603	0.723405
469	C	0.404031	0.009453	0.771237
470	C	0.43998	0.009639	0.792446
471	H	0.380012	0.008629	0.791422
472	H	0.441036	0.008936	0.827358
473	H	0.080803	0.513142	0.825423
474	H	0.140935	0.51507	0.787763
475	H	0.085497	0.512689	0.993618
476	H	0.432906	0.012168	0.995749
477	H	0.010933	0.934912	0.717154
478	H	0.007738	0.883584	0.920528
479	H	0.006035	0.944995	0.885777
480	H	0.013138	0.587757	0.721425
481	H	0.004866	0.584808	0.88989
482	H	0.007799	0.644723	0.928451
483	C	0.009594	0.512037	0.690391
484	C	0.010597	0.010985	0.792013
485	H	0.010434	0.536346	0.814048
486	H	0.011192	0.985423	0.813639
487	C	0.006352	0.514155	0.922252
488	H	0.031019	0.01486	0.899162
489	H	0.480142	0.514353	0.901719
490	N	0.154185	0.514551	0.700236
491	N	0.014732	0.656869	0.681044
492	N	0.010405	0.866922	0.669591
493	N	0.36457	0.010139	0.708535
494	C	0.03176	0.742999	0.998998
495	C	0.536074	0.783441	0.002654
496	C	0.510075	0.804117	0.697799
497	N	0.48262	0.783062	0.719489
498	H	0.048886	0.727832	0.977048
499	N	0.978635	0.745747	0.715188
500	C	0.566861	0.802929	0.976226
501	H	0.585759	0.782683	0.95885
502	H	0.084492	0.820285	0.999084
503	H	0.554152	0.821459	0.950295
504	C	0.991919	0.686113	0.011878
505	H	0.967209	0.683197	0.995182
506	C	0.509408	0.84402	0.703984
507	H	0.505413	0.854785	0.734994
508	C	0.302218	0.010182	0.679351
509	C	0.27527	0.017546	0.97755
510	C	0.235072	0.01398	0.985456
511	C	0.222442	0.002592	0.69632
512	N	0.250421	0.996062	0.727873
513	H	0.285045	0.025523	0.945994
514	N	0.287223	0.999588	0.720285
515	C	0.2074	0.021202	0.947896
516	H	0.221679	0.028145	0.915756
517	H	0.188835	0.545269	0.956809
518	H	0.189771	0.995749	0.942304
519	C	0.3421	0.013033	0.673855
520	H	0.35333	0.017929	0.976588
521	C	0.184956	0.99601	0.711754
522	H	0.182569	0.97732	0.73737
523	C	0.509093	0.05004	0.331049
524	C	0.50699	0.049942	0.282669
525	C	0.507665	0.477305	0.280577
526	C	0.509195	0.475113	0.328943
527	C	0.509401	0.403461	0.322277
528	C	0.508138	0.407326	0.274515
529	C	0.507156	0.443534	0.25398
530	C	0.505984	0.084819	0.25816
531	C	0.507417	0.120113	0.280877
532	C	0.5095	0.121941	0.328891
533	C	0.581187	0.012522	0.123798
534	C	0.93998	0.509639	0.125778
535	H	0.880012	0.508631	0.124755
536	H	0.941036	0.508936	0.160689
537	H	0.580803	0.013142	0.158754
538	H	0.640937	0.01507	0.121094
539	H	0.585497	0.012689	0.326951
540	H	0.932907	0.512166	0.329081
541	H	0.507738	0.383583	0.25386
542	H	0.506034	0.444994	0.21911
543	H	0.504865	0.084808	0.223222
544	H	0.507798	0.144724	0.261783
545	C	0.510597	0.510984	0.125344
546	H	0.510433	0.036346	0.14738
547	H	0.511191	0.485422	0.146972
548	C	0.506351	0.014155	0.255584
549	H	0.53102	0.514861	0.232493
550	H	0.980142	0.014352	0.23505
551	N	0.510404	0.366924	0.002924
552	C	0.502467	0.223528	0.356307
553	C	0.531759	0.242999	0.33233
554	C	0.036074	0.283441	0.335987
555	H	0.548886	0.227833	0.310379
556	C	0.06686	0.302928	0.309557
557	H	0.085758	0.282684	0.292178
558	H	0.584493	0.320287	0.332415
559	H	0.054151	0.321458	0.283625
560	C	0.491918	0.186112	0.345209
561	H	0.467208	0.183199	0.328514
562	C	0.775269	0.517546	0.310884
563	C	0.735071	0.51398	0.318789
564	H	0.785044	0.525523	0.279328
565	C	0.707402	0.521202	0.281227
566	H	0.721679	0.528145	0.249088
567	H	0.688835	0.045269	0.29014
568	H	0.689771	0.495748	0.275636
569	C	0.8421	0.513033	0.007188
570	H	0.853331	0.517928	0.309921
571	C	0.509093	0.05004	0.664382
572	C	0.50699	0.049942	0.616003
573	C	0.507665	0.477305	0.613911
574	C	0.509195	0.475113	0.662276
575	C	0.509896	0.437534	0.349087
576	C	0.509401	0.403461	0.655609
577	C	0.508138	0.407326	0.607848
578	C	0.507156	0.443534	0.587315
579	C	0.505984	0.084819	0.591493
580	C	0.507417	0.120113	0.614211
581	C	0.5095	0.121941	0.662225
582	C	0.510787	0.086686	0.353327
583	C	0.972446	0.511489	0.384668
584	C	0.974052	0.510657	0.433081
585	C	0.546628	0.011539	0.43207
586	C	0.547282	0.011645	0.38363
587	C	0.581187	0.012522	0.457134
588	C	0.616672	0.013331	0.434863
589	C	0.619176	0.012162	0.386754
590	C	0.584137	0.012249	0.36182
591	C	0.935142	0.511613	0.363865
592	C	0.900806	0.510606	0.390072
593	C	0.904031	0.509452	0.437904
594	C	0.93998	0.509639	0.45911
595	H	0.880012	0.508631	0.458089
596	H	0.941036	0.508936	0.494022
597	H	0.580803	0.013142	0.492086
598	H	0.640937	0.01507	0.454427
599	H	0.585497	0.012689	0.660286
600	H	0.932907	0.512166	0.662416
601	H	0.510932	0.434914	0.383818
602	H	0.507738	0.383583	0.587195
603	H	0.506034	0.444994	0.552444
604	H	0.51314	0.087759	0.388092
605	H	0.504865	0.084808	0.556557
606	H	0.507798	0.144724	0.595118
607	C	0.509594	0.012038	0.357058
608	C	0.510597	0.510984	0.458677
609	H	0.510433	0.036346	0.480715
610	H	0.511191	0.485422	0.480306
611	C	0.506351	0.014155	0.588919
612	H	0.53102	0.514861	0.565825
613	H	0.980142	0.014352	0.568386
614	N	0.654187	0.014551	0.3669
615	N	0.514733	0.15687	0.347711
616	N	0.510404	0.366924	0.336258
617	N	0.86457	0.510138	0.375198
618	C	0.502467	0.223528	0.689643
619	C	0.531759	0.242999	0.665666
620	C	0.036074	0.283441	0.669322
621	C	0.010075	0.304119	0.364462
622	N	0.98262	0.283063	0.386156
623	H	0.548886	0.227833	0.643712
624	N	0.478634	0.245747	0.381855
625	C	0.06686	0.302928	0.642889
626	H	0.085758	0.282684	0.625514
627	H	0.584493	0.320287	0.665747
628	H	0.054151	0.321458	0.616959
629	C	0.491918	0.186112	0.678542
630	H	0.467208	0.183199	0.661849
631	C	0.009408	0.344019	0.370648
632	H	0.005416	0.354784	0.401658
633	C	0.802218	0.510184	0.346018
634	C	0.775269	0.517546	0.644217
635	C	0.735071	0.51398	0.652123
636	C	0.722444	0.502595	0.362988
637	N	0.750422	0.496061	0.39454
638	H	0.785044	0.525523	0.612661
639	N	0.787226	0.499588	0.386952
640	C	0.707402	0.521202	0.614559
641	H	0.721679	0.528145	0.582423
642	H	0.688835	0.045269	0.623472
643	H	0.689771	0.495748	0.608971
644	C	0.8421	0.513033	0.340521
645	H	0.853331	0.517928	0.643255
646	C	0.684957	0.496012	0.378417
647	H	0.68257	0.477322	0.404037
648	C	0.509093	0.05004	0.997715
649	C	0.50699	0.049942	0.949336
650	C	0.507665	0.477305	0.947244
651	C	0.509195	0.475113	0.995612
652	C	0.509896	0.437534	0.68242
653	C	0.509401	0.403461	0.988945
654	C	0.508138	0.407326	0.941181
655	C	0.507156	0.443534	0.920647
656	C	0.505984	0.084819	0.924829
657	C	0.507417	0.120113	0.947544
658	C	0.5095	0.121941	0.995557
659	C	0.510787	0.086686	0.68666
660	C	0.972446	0.511489	0.718001
661	C	0.974052	0.510657	0.766417
662	C	0.546628	0.011539	0.765403
663	C	0.547282	0.011645	0.716963
664	C	0.581187	0.012522	0.790467
665	C	0.616672	0.013331	0.768196
666	C	0.619176	0.012162	0.720087
667	C	0.584137	0.012249	0.695153
668	C	0.935142	0.511613	0.697198
669	C	0.900806	0.510606	0.723405
670	C	0.904031	0.509452	0.771237
671	C	0.93998	0.509639	0.792446
672	H	0.880012	0.508631	0.791422
673	H	0.941036	0.508936	0.827358
674	H	0.580803	0.013142	0.825423
675	H	0.640937	0.01507	0.787763
676	H	0.585497	0.012689	0.993618
677	H	0.932907	0.512166	0.995749
678	H	0.510932	0.434914	0.717154
679	H	0.507738	0.383583	0.920528
680	H	0.506034	0.444994	0.885777
681	H	0.51314	0.087759	0.721425
682	H	0.504865	0.084808	0.88989
683	H	0.507798	0.144724	0.928451
684	C	0.509594	0.012038	0.690391
685	C	0.510597	0.510984	0.792013
686	H	0.510433	0.036346	0.814048
687	H	0.511191	0.485422	0.813639
688	C	0.506351	0.014155	0.922252
689	H	0.53102	0.514861	0.899162
690	H	0.980142	0.014352	0.901719
691	N	0.654187	0.014551	0.700236
692	N	0.514733	0.15687	0.681044
693	N	0.510404	0.366924	0.669591
694	N	0.86457	0.510138	0.708535
695	C	0.531759	0.242999	0.998998
696	C	0.036074	0.283441	0.002654
697	C	0.010075	0.304119	0.697795
698	N	0.98262	0.283063	0.719489
699	H	0.548886	0.227833	0.977045
700	N	0.478634	0.245747	0.715188
701	C	0.06686	0.302928	0.976226
702	H	0.085758	0.282684	0.958847
703	H	0.584493	0.320287	0.999084
704	H	0.054151	0.321458	0.950292
705	C	0.491918	0.186112	0.011875
706	H	0.467208	0.183199	0.995182
707	C	0.009408	0.344019	0.703981
708	H	0.005416	0.354784	0.734994
709	C	0.802218	0.510184	0.679351
710	C	0.775269	0.517546	0.97755
711	C	0.735071	0.51398	0.985456
712	C	0.722444	0.502595	0.69632
713	N	0.750422	0.496061	0.727873
714	H	0.785044	0.525523	0.945994
715	N	0.787226	0.499588	0.720285
716	C	0.707402	0.521202	0.947896
717	H	0.721679	0.528145	0.915756
718	H	0.688835	0.045269	0.956809
719	H	0.689771	0.495748	0.942304
720	C	0.8421	0.513033	0.673855
721	H	0.853331	0.517928	0.976588
722	C	0.684957	0.496012	0.711754
723	H	0.68257	0.477322	0.73737
724	C	0.509094	0.550038	0.331049
725	C	0.506988	0.54994	0.282669
726	C	0.507664	0.977303	0.280577
727	C	0.509194	0.975111	0.328943
728	C	0.5094	0.903462	0.322277
729	C	0.508137	0.907327	0.274515
730	C	0.507155	0.943531	0.25398
731	C	0.505983	0.584819	0.25816
732	C	0.507416	0.620111	0.280877
733	C	0.509502	0.621942	0.328892
734	C	0.581189	0.512522	0.123798
735	C	0.939979	0.009639	0.125778
736	H	0.880014	0.008629	0.124755
737	H	0.941035	0.008936	0.160689
738	H	0.580805	0.513142	0.158754
739	H	0.640936	0.51507	0.121094
740	H	0.585496	0.512689	0.326951
741	H	0.932908	0.012168	0.329081
742	H	0.507739	0.883584	0.253861
743	H	0.506033	0.944995	0.219111
744	H	0.504867	0.584808	0.223222
745	H	0.5078	0.644723	0.261784
746	C	0.510595	0.010985	0.125344
747	H	0.510432	0.536346	0.14738
748	H	0.511193	0.985423	0.146972
749	C	0.50635	0.514155	0.255583
750	H	0.531018	0.01486	0.232493
751	H	0.980141	0.514353	0.23505
752	N	0.510406	0.866922	0.002928
753	C	0.502466	0.723528	0.356307
754	C	0.53176	0.742999	0.332331
755	C	0.036075	0.783441	0.335989
756	H	0.548885	0.727832	0.31038
757	C	0.066861	0.802929	0.309559
758	H	0.085759	0.782683	0.292181
759	H	0.584492	0.820285	0.332418
760	H	0.054153	0.821459	0.283627
761	C	0.49192	0.686113	0.345209
762	H	0.467207	0.683197	0.328515
763	C	0.77527	0.017546	0.310884
764	C	0.735072	0.01398	0.318789
765	H	0.785046	0.025523	0.279328
766	C	0.7074	0.021202	0.281227
767	H	0.721681	0.028145	0.249088
768	H	0.688834	0.545269	0.29014
769	H	0.68977	0.995749	0.275636
770	C	0.842099	0.013033	0.007188
771	H	0.853329	0.017929	0.309921
772	C	0.509094	0.550038	0.664382
773	C	0.506988	0.54994	0.616003
774	C	0.507664	0.977303	0.613911
775	C	0.509194	0.975111	0.662276
776	C	0.509898	0.937532	0.349087
777	C	0.5094	0.903462	0.655612
778	C	0.508137	0.907327	0.607848
779	C	0.507155	0.943531	0.587315
780	C	0.505983	0.584819	0.591493
781	C	0.507416	0.620111	0.614211
782	C	0.509502	0.621942	0.662225
783	C	0.510786	0.586687	0.353327
784	C	0.972447	0.01149	0.384668
785	C	0.974051	0.010655	0.433081
786	C	0.546629	0.511541	0.43207
787	C	0.547283	0.511644	0.38363
788	C	0.581189	0.512522	0.45713
789	C	0.61667	0.513331	0.434863
790	C	0.619178	0.512161	0.38675
791	C	0.584139	0.51225	0.36182
792	C	0.935141	0.011613	0.363865
793	C	0.900805	0.010603	0.390072
794	C	0.90403	0.009453	0.437904
795	C	0.939979	0.009639	0.45911
796	H	0.880014	0.008629	0.458089
797	H	0.941035	0.008936	0.494022
798	H	0.580805	0.513142	0.492086
799	H	0.640936	0.51507	0.454427
800	H	0.585496	0.512689	0.660286
801	H	0.932908	0.012168	0.662416
802	H	0.510931	0.934912	0.383818
803	H	0.507739	0.883584	0.587195
804	H	0.506033	0.944995	0.552444
805	H	0.513139	0.587757	0.388092
806	H	0.504867	0.584808	0.556557
807	H	0.5078	0.644723	0.595118
808	C	0.509592	0.512037	0.357058
809	C	0.510595	0.010985	0.458677
810	H	0.510432	0.536346	0.480712
811	H	0.511193	0.985423	0.480306
812	C	0.50635	0.514155	0.588919
813	H	0.531018	0.01486	0.565829
814	H	0.980141	0.514353	0.568386
815	N	0.654186	0.514551	0.3669
816	N	0.514732	0.656869	0.347711
817	N	0.510406	0.866922	0.336258
818	N	0.864569	0.010139	0.375198
819	C	0.502466	0.723528	0.689643
820	C	0.53176	0.742999	0.665666
821	C	0.036075	0.783441	0.669322
822	C	0.010074	0.804117	0.364462
823	N	0.982619	0.783062	0.386156
824	H	0.548885	0.727832	0.643716
825	N	0.478633	0.745747	0.381855
826	C	0.066861	0.802929	0.642893
827	H	0.085759	0.782683	0.625514
828	H	0.584492	0.820285	0.665751
829	H	0.054153	0.821459	0.616959
830	C	0.49192	0.686113	0.678542
831	H	0.467207	0.683197	0.661849
832	C	0.00941	0.84402	0.370648
833	H	0.005415	0.854785	0.401661
834	C	0.802219	0.010182	0.346018
835	C	0.77527	0.017546	0.644217
836	C	0.735072	0.01398	0.652123
837	C	0.722443	0.002592	0.362988
838	N	0.750421	0.996062	0.39454
839	H	0.785046	0.025523	0.612661
840	N	0.787225	0.999588	0.386952
841	C	0.7074	0.021202	0.614559
842	H	0.721681	0.028145	0.582423
843	H	0.688834	0.545269	0.623476
844	H	0.68977	0.995749	0.608971
845	C	0.842099	0.013033	0.340521
846	H	0.853329	0.017929	0.643255
847	C	0.684956	0.99601	0.378417
848	H	0.682569	0.97732	0.404037
849	C	0.509094	0.550038	0.997715
850	C	0.506988	0.54994	0.949336
851	C	0.507664	0.977303	0.947244
852	C	0.509194	0.975111	0.995612
853	C	0.509898	0.937532	0.68242
854	C	0.5094	0.903462	0.988945
855	C	0.508137	0.907327	0.941184
856	C	0.507155	0.943531	0.920647
857	C	0.505983	0.584819	0.924829
858	C	0.507416	0.620111	0.947544
859	C	0.509502	0.621942	0.995557
860	C	0.510786	0.586687	0.68666
861	C	0.972447	0.01149	0.718001
862	C	0.974051	0.010655	0.766417
863	C	0.546629	0.511541	0.765403
864	C	0.547283	0.511644	0.716963
865	C	0.581189	0.512522	0.790467
866	C	0.61667	0.513331	0.768196
867	C	0.619178	0.512161	0.720087
868	C	0.584139	0.51225	0.695153
869	C	0.935141	0.011613	0.697198
870	C	0.900805	0.010603	0.723405
871	C	0.90403	0.009453	0.771237
872	C	0.939979	0.009639	0.792446
873	H	0.880014	0.008629	0.791422
874	H	0.941035	0.008936	0.827358
875	H	0.580805	0.513142	0.825423
876	H	0.640936	0.51507	0.787763
877	H	0.585496	0.512689	0.993618
878	H	0.932908	0.012168	0.995749
879	H	0.510931	0.934912	0.717154
880	H	0.507739	0.883584	0.920528
881	H	0.506033	0.944995	0.885777
882	H	0.513139	0.587757	0.721425
883	H	0.504867	0.584808	0.88989
884	H	0.5078	0.644723	0.928451
885	C	0.509592	0.512037	0.690391
886	C	0.510595	0.010985	0.792013
887	H	0.510432	0.536346	0.814048
888	H	0.511193	0.985423	0.813639
889	C	0.50635	0.514155	0.922252
890	H	0.531018	0.01486	0.899162
891	H	0.980141	0.514353	0.901719
892	N	0.654186	0.514551	0.700236
893	N	0.514732	0.656869	0.681044
894	N	0.510406	0.866922	0.669591
895	N	0.864569	0.010139	0.708535
896	C	0.53176	0.742999	0.998998
897	C	0.036075	0.783441	0.002654
898	C	0.010074	0.804117	0.697799
899	N	0.982619	0.783062	0.719489
900	H	0.548885	0.727832	0.977048
901	N	0.478633	0.745747	0.715188
902	C	0.066861	0.802929	0.976226
903	H	0.085759	0.782683	0.95885
904	H	0.584492	0.820285	0.999084
905	H	0.054153	0.821459	0.950295
906	C	0.49192	0.686113	0.011878
907	H	0.467207	0.683197	0.995182
908	C	0.00941	0.84402	0.703984
909	H	0.005415	0.854785	0.734994
910	C	0.802219	0.010182	0.679351
911	C	0.77527	0.017546	0.97755
912	C	0.735072	0.01398	0.985456
913	C	0.722443	0.002592	0.69632
914	N	0.750421	0.996062	0.727873
915	H	0.785046	0.025523	0.945994
916	N	0.787225	0.999588	0.720285
917	C	0.7074	0.021202	0.947896
918	H	0.721681	0.028145	0.915756
919	H	0.688834	0.545269	0.956809
920	H	0.68977	0.995749	0.942304
921	C	0.842099	0.013033	0.673855
922	H	0.853329	0.017929	0.976588
923	C	0.684956	0.99601	0.711754
924	H	0.682569	0.97732	0.73737
