data_C648H432N144_2018-02-15_10:40:20
#******************************************
#
# CIF file created by Zeo++
# Zeo++ is an open source package to
# analyze microporous materials
#
#*******************************************

_cell_length_a		45.2176   
_cell_length_b		45.2386   
_cell_length_c		29.6886   
_cell_angle_alpha		90   
_cell_angle_beta		90   
_cell_angle_gamma		119.989   

_symmetry_space_group_name_H-M		'P1'
_symmetry_Int_Tables_number		1
_symmetry_cell_setting		Monoclinic

loop_
_symmetry_equiv_pos_as_xyz
'+x,+y,+z'

loop_
_atom_site_label
_atom_site_type_symbol
_atom_site_fract_x
_atom_site_fract_y
_atom_site_fract_z
1	C	0.04189	0.022386	0.000228
2	C	0.022867	0.039534	0.000976
3	C	0.023343	0.486211	0.000983
4	H	0.036568	0.47331	0.001205
5	H	0.035777	0.06565	0.001222
6	C	0.098842	0.069075	0.303435
7	C	0.07868	0.040937	0.332559
8	C	0.097334	0.031841	0.029054
9	H	0.085046	0.012149	0.051334
10	C	0.085766	0.08112	0.266126
11	H	0.059232	0.063151	0.257794
12	H	0.10071	0.084594	0.235675
13	H	0.08813	0.105575	0.275238
14	C	0.04189	0.022386	0.333559
15	C	0.022867	0.039534	0.334309
16	C	0.023343	0.486211	0.334315
17	H	0.036568	0.47331	0.334537
18	H	0.035777	0.06565	0.334553
19	C	0.098842	0.069075	0.636769
20	C	0.07868	0.040937	0.665891
21	C	0.097334	0.031841	0.362388
22	H	0.085046	0.012149	0.384669
23	C	0.085766	0.08112	0.599458
24	H	0.059232	0.063151	0.591129
25	H	0.10071	0.084594	0.569009
26	H	0.08813	0.105575	0.608573
27	C	0.04189	0.022386	0.666892
28	C	0.022867	0.039534	0.667643
29	C	0.023343	0.486211	0.66765
30	H	0.036568	0.47331	0.667872
31	H	0.035777	0.06565	0.667885
32	C	0.098842	0.069075	0.970102
33	C	0.07868	0.040937	0.999228
34	C	0.097334	0.031841	0.695721
35	H	0.085046	0.012149	0.718002
36	C	0.085766	0.08112	0.932791
37	H	0.059232	0.063151	0.924462
38	H	0.10071	0.084594	0.902342
39	H	0.08813	0.105575	0.941906
40	C	0.04189	0.522386	0.000228
41	C	0.022868	0.539534	0.000976
42	C	0.023343	0.986212	0.000983
43	H	0.036566	0.973308	0.001205
44	H	0.035778	0.56565	0.001222
45	C	0.098842	0.569075	0.303435
46	C	0.078681	0.540938	0.332559
47	C	0.097335	0.531842	0.029054
48	H	0.085046	0.512149	0.051334
49	C	0.085766	0.581119	0.266125
50	H	0.059233	0.563152	0.257794
51	H	0.10071	0.584593	0.235675
52	H	0.08813	0.605574	0.275238
53	C	0.04189	0.522386	0.333559
54	C	0.022868	0.539534	0.334309
55	C	0.023343	0.986212	0.334315
56	H	0.036566	0.973308	0.334537
57	H	0.035778	0.56565	0.334553
58	C	0.098842	0.569075	0.636769
59	C	0.078681	0.540938	0.665891
60	C	0.097335	0.531842	0.362388
61	H	0.085046	0.512149	0.384669
62	C	0.085766	0.581119	0.599458
63	H	0.059233	0.563152	0.591129
64	H	0.10071	0.584593	0.569009
65	H	0.08813	0.605574	0.608573
66	C	0.04189	0.522386	0.666892
67	C	0.022868	0.539534	0.667643
68	C	0.023343	0.986212	0.66765
69	H	0.036566	0.973308	0.667872
70	H	0.035778	0.56565	0.667885
71	C	0.098842	0.569075	0.970102
72	C	0.078681	0.540938	0.999228
73	C	0.097335	0.531842	0.695721
74	H	0.085046	0.512149	0.718002
75	C	0.085766	0.581119	0.932791
76	H	0.059233	0.563152	0.924462
77	H	0.10071	0.584593	0.902342
78	H	0.08813	0.605574	0.941906
79	H	0.010614	0.449832	0.257822
80	H	0.024144	0.420934	0.275291
81	H	0.010614	0.449832	0.591156
82	H	0.024144	0.420934	0.608624
83	H	0.010614	0.449832	0.924489
84	H	0.024144	0.420934	0.941957
85	H	0.010613	0.94983	0.257822
86	H	0.024144	0.920932	0.275291
87	H	0.010613	0.94983	0.591156
88	H	0.024144	0.920932	0.608624
89	H	0.010613	0.94983	0.924489
90	H	0.024144	0.920932	0.941957
91	C	0.187065	0.094793	0.003947
92	N	0.132007	0.049358	0.029864
93	C	0.150755	0.076685	0.336173
94	N	0.133528	0.085683	0.306942
95	C	0.187065	0.094793	0.337277
96	N	0.132007	0.049358	0.363196
97	C	0.150755	0.076685	0.669509
98	N	0.133528	0.085683	0.640275
99	C	0.187065	0.094793	0.67061
100	N	0.132007	0.049358	0.696529
101	C	0.150755	0.076685	0.002842
102	N	0.133528	0.085683	0.973608
103	C	0.187065	0.594794	0.003947
104	N	0.132007	0.549357	0.029864
105	C	0.150754	0.576683	0.336173
106	N	0.133528	0.585682	0.306942
107	C	0.187065	0.594794	0.337277
108	N	0.132007	0.549357	0.363196
109	C	0.150754	0.576683	0.669509
110	N	0.133528	0.585682	0.640275
111	C	0.187065	0.594794	0.67061
112	N	0.132007	0.549357	0.696529
113	C	0.150754	0.576683	0.002842
114	N	0.133528	0.585682	0.973608
115	C	0.241627	0.094869	0.00623
116	C	0.241588	0.149288	0.003775
117	C	0.205542	0.131036	0.00231
118	C	0.205539	0.077033	0.006161
119	H	0.192718	0.144348	0.001323
120	H	0.192737	0.050901	0.006502
121	H	0.242311	0.07851	0.093253
122	C	0.241627	0.094869	0.339564
123	C	0.241588	0.149288	0.337109
124	C	0.205542	0.131036	0.335641
125	C	0.205539	0.077033	0.339494
126	H	0.192718	0.144348	0.334655
127	H	0.192737	0.050901	0.339837
128	H	0.242311	0.07851	0.426588
129	C	0.241627	0.094869	0.672897
130	C	0.241588	0.149288	0.670442
131	C	0.205542	0.131036	0.668973
132	C	0.205539	0.077033	0.672827
133	H	0.192718	0.144348	0.66799
134	H	0.192737	0.050901	0.67317
135	H	0.242311	0.07851	0.759921
136	C	0.241626	0.594868	0.00623
137	C	0.241588	0.649288	0.003775
138	C	0.205542	0.631035	0.00231
139	C	0.205539	0.577033	0.006161
140	H	0.192718	0.644347	0.001323
141	H	0.192737	0.550901	0.006502
142	H	0.242312	0.578511	0.093253
143	C	0.241626	0.594868	0.339564
144	C	0.241588	0.649288	0.337109
145	C	0.205542	0.631035	0.335641
146	C	0.205539	0.577033	0.339494
147	H	0.192718	0.644347	0.334655
148	H	0.192737	0.550901	0.339837
149	H	0.242312	0.578511	0.426588
150	C	0.241626	0.594868	0.672897
151	C	0.241588	0.649288	0.670442
152	C	0.205542	0.631035	0.668973
153	C	0.205539	0.577033	0.67283
154	H	0.192718	0.644347	0.66799
155	H	0.192737	0.550901	0.67317
156	H	0.242312	0.578511	0.759921
157	C	0.486677	0.021908	0.000252
158	C	0.469527	0.485749	0.000976
159	C	0.487169	0.4672	0.000231
160	H	0.443399	0.472539	0.001218
161	C	0.25914	0.130868	0.005507
162	H	0.285371	0.143988	0.006154
163	C	0.414326	0.149285	0.006241
164	C	0.378309	0.130792	0.005477
165	C	0.35989	0.094834	0.003697
166	C	0.378156	0.077063	0.002161
167	C	0.414412	0.094822	0.003886
168	C	0.432171	0.13104	0.006205
169	H	0.36484	0.050938	0.00108
170	H	0.458315	0.144366	0.006622
171	H	0.365172	0.143885	0.006109
172	C	0.359882	0.267555	0.006284
173	C	0.378365	0.250022	0.005536
174	C	0.414339	0.267538	0.003741
175	C	0.432137	0.303567	0.002219
176	C	0.414387	0.32207	0.003947
177	C	0.378152	0.303631	0.006249
178	H	0.458271	0.316358	0.001107
179	H	0.364829	0.316448	0.006691
180	H	0.365248	0.223804	0.006184
181	C	0.439984	0.0322	0.303496
182	C	0.468137	0.040158	0.332603
183	C	0.477288	0.06793	0.02906
184	N	0.459825	0.085141	0.029825
185	C	0.432503	0.076604	0.33612
186	N	0.423448	0.050349	0.306937
187	H	0.496992	0.075324	0.051331
188	C	0.427932	0.007119	0.266151
189	H	0.445879	0.998516	0.25784
190	H	0.424514	0.018623	0.235701
191	H	0.403437	0.985053	0.275217
192	C	0.47692	0.410253	0.303457
193	C	0.468938	0.430423	0.33257
194	C	0.441166	0.411784	0.029041
195	N	0.424015	0.377128	0.029853
196	C	0.432599	0.35837	0.336178
197	N	0.458836	0.375582	0.30696
198	H	0.433765	0.424076	0.051327
199	C	0.502051	0.423308	0.26616
200	H	0.510614	0.449832	0.257822
201	H	0.490591	0.408372	0.235709
202	H	0.524145	0.420934	0.275291
203	C	0.278448	0.077865	0.046823
204	C	0.261837	0.07881	0.006591
205	C	0.277388	0.078083	0.298886
206	N	0.308188	0.079735	0.298906
207	C	0.323896	0.078826	0.004061
208	N	0.309047	0.079019	0.043741
209	H	0.268552	0.081744	0.268875
210	C	0.267287	0.080329	0.092855
211	H	0.285852	0.104616	0.107982
212	H	0.265637	0.059578	0.113454
213	C	0.43143	0.203156	0.046944
214	C	0.430398	0.185556	0.006755
215	C	0.430928	0.201678	0.298994
216	N	0.429312	0.230837	0.29896
217	C	0.430324	0.247526	0.004091
218	N	0.430218	0.232557	0.043797
219	H	0.427271	0.18921	0.268958
220	C	0.428927	0.189541	0.092979
221	H	0.430717	0.166377	0.093383
222	H	0.404629	0.183843	0.108082
223	H	0.44969	0.208625	0.113585
224	C	0.305922	0.230941	0.047031
225	C	0.323604	0.247411	0.006847
226	C	0.307471	0.23169	0.299122
227	N	0.278382	0.200857	0.29925
228	C	0.261583	0.185249	0.004385
229	N	0.27652	0.200329	0.04399
230	H	0.320045	0.240245	0.26911
231	C	0.319469	0.24228	0.093044
232	H	0.342644	0.267229	0.093339
233	H	0.325146	0.223766	0.108448
234	H	0.300341	0.244053	0.113446
235	C	0.486677	0.021908	0.333585
236	C	0.469527	0.485749	0.334309
237	C	0.487169	0.4672	0.333563
238	H	0.443399	0.472539	0.33455
239	C	0.25914	0.130868	0.33884
240	H	0.285371	0.143988	0.339487
241	C	0.414326	0.149285	0.339574
242	C	0.378309	0.130792	0.33881
243	C	0.35989	0.094834	0.337031
244	C	0.378156	0.077063	0.335493
245	C	0.414412	0.094822	0.33722
246	C	0.432171	0.13104	0.339541
247	H	0.36484	0.050938	0.334414
248	H	0.458315	0.144366	0.339955
249	H	0.365172	0.143885	0.339443
250	C	0.359882	0.267555	0.339618
251	C	0.378365	0.250022	0.33887
252	C	0.414339	0.267538	0.337072
253	C	0.432137	0.303567	0.33555
254	C	0.414387	0.32207	0.337277
255	C	0.378152	0.303631	0.339581
256	H	0.458271	0.316358	0.334441
257	H	0.364829	0.316448	0.340026
258	H	0.365248	0.223804	0.339517
259	C	0.439984	0.0322	0.63683
260	C	0.468137	0.040158	0.665938
261	C	0.477288	0.06793	0.362395
262	N	0.459825	0.085141	0.363159
263	C	0.432503	0.076604	0.669452
264	N	0.423448	0.050349	0.640272
265	H	0.496992	0.075324	0.384666
266	C	0.427932	0.007119	0.599485
267	H	0.445879	0.998516	0.591172
268	H	0.424514	0.018623	0.569036
269	H	0.403437	0.985053	0.608549
270	C	0.47692	0.410253	0.636793
271	C	0.468938	0.430423	0.665905
272	C	0.441166	0.411784	0.362374
273	N	0.424015	0.377128	0.363186
274	C	0.432599	0.35837	0.669512
275	N	0.458836	0.375582	0.640292
276	H	0.433765	0.424076	0.384662
277	C	0.502051	0.423308	0.599495
278	H	0.510614	0.449832	0.591156
279	H	0.490591	0.408372	0.569043
280	H	0.524145	0.420934	0.608624
281	C	0.278448	0.077865	0.380156
282	C	0.261837	0.07881	0.339925
283	C	0.277388	0.078083	0.632218
284	N	0.308188	0.079735	0.632239
285	C	0.323896	0.078826	0.337395
286	N	0.309047	0.079019	0.377074
287	H	0.268552	0.081744	0.60221
288	C	0.267287	0.080329	0.42619
289	H	0.285852	0.104616	0.441317
290	H	0.265637	0.059578	0.446787
291	C	0.43143	0.203156	0.380277
292	C	0.430398	0.185556	0.34009
293	C	0.430928	0.201678	0.632326
294	N	0.429312	0.230837	0.632293
295	C	0.430324	0.247526	0.337422
296	N	0.430218	0.232557	0.377131
297	H	0.427271	0.18921	0.602291
298	C	0.428927	0.189541	0.426311
299	H	0.430717	0.166377	0.426716
300	H	0.404629	0.183843	0.441415
301	H	0.44969	0.208625	0.446919
302	C	0.305922	0.230941	0.380364
303	C	0.323604	0.247411	0.340181
304	C	0.307471	0.23169	0.632454
305	N	0.278382	0.200857	0.632582
306	C	0.261583	0.185249	0.337715
307	N	0.27652	0.200329	0.377323
308	H	0.320045	0.240245	0.602443
309	C	0.319469	0.24228	0.426379
310	H	0.342644	0.267229	0.426672
311	H	0.325146	0.223766	0.441782
312	H	0.300341	0.244053	0.44678
313	C	0.486677	0.021908	0.666919
314	C	0.469527	0.485749	0.667643
315	C	0.487169	0.4672	0.666895
316	H	0.443399	0.472539	0.667885
317	C	0.25914	0.130868	0.672173
318	H	0.285371	0.143988	0.672823
319	C	0.414326	0.149285	0.672907
320	C	0.378309	0.130792	0.672143
321	C	0.35989	0.094834	0.670364
322	C	0.378156	0.077063	0.668825
323	C	0.414412	0.094822	0.670553
324	C	0.432171	0.13104	0.672874
325	H	0.36484	0.050938	0.667747
326	H	0.458315	0.144366	0.673288
327	H	0.365172	0.143885	0.672776
328	C	0.359882	0.267555	0.672951
329	C	0.378365	0.250022	0.672203
330	C	0.414339	0.267538	0.670408
331	C	0.432137	0.303567	0.668882
332	C	0.414387	0.32207	0.67061
333	C	0.378152	0.303631	0.672918
334	H	0.458271	0.316358	0.667774
335	H	0.364829	0.316448	0.673359
336	H	0.365248	0.223804	0.67285
337	C	0.439984	0.0322	0.970163
338	C	0.468137	0.040158	0.999271
339	C	0.477288	0.06793	0.695728
340	N	0.459825	0.085141	0.696492
341	C	0.432503	0.076604	0.002788
342	N	0.423448	0.050349	0.973605
343	H	0.496992	0.075324	0.717999
344	C	0.427932	0.007119	0.932818
345	H	0.445879	0.998516	0.924509
346	H	0.424514	0.018623	0.902369
347	H	0.403437	0.985053	0.941886
348	C	0.47692	0.410253	0.970126
349	C	0.468938	0.430423	0.999238
350	C	0.441166	0.411784	0.695707
351	N	0.424015	0.377128	0.696519
352	C	0.432599	0.35837	0.002845
353	N	0.458836	0.375582	0.973629
354	H	0.433765	0.424076	0.717995
355	C	0.502051	0.423308	0.932828
356	H	0.510614	0.449832	0.924489
357	H	0.490591	0.408372	0.902376
358	H	0.524145	0.420934	0.941957
359	C	0.278448	0.077865	0.713492
360	C	0.261837	0.07881	0.673258
361	C	0.277388	0.078083	0.965555
362	N	0.308188	0.079735	0.965575
363	C	0.323896	0.078826	0.670728
364	N	0.309047	0.079019	0.71041
365	H	0.268552	0.081744	0.935543
366	C	0.267287	0.080329	0.759523
367	H	0.285852	0.104616	0.77465
368	H	0.265637	0.059578	0.78012
369	C	0.43143	0.203156	0.71361
370	C	0.430398	0.185556	0.673423
371	C	0.430928	0.201678	0.965663
372	N	0.429312	0.230837	0.965629
373	C	0.430324	0.247526	0.670755
374	N	0.430218	0.232557	0.710464
375	H	0.427271	0.18921	0.935624
376	C	0.428927	0.189541	0.759648
377	H	0.430717	0.166377	0.760049
378	H	0.404629	0.183843	0.774751
379	H	0.44969	0.208625	0.780252
380	C	0.305922	0.230941	0.713697
381	C	0.323604	0.247411	0.673514
382	C	0.307471	0.23169	0.965787
383	N	0.278382	0.200857	0.965919
384	C	0.261583	0.185249	0.671052
385	N	0.27652	0.200329	0.710659
386	H	0.320045	0.240245	0.935776
387	C	0.319469	0.24228	0.759712
388	H	0.342644	0.267229	0.760008
389	H	0.325146	0.223766	0.775115
390	H	0.300341	0.244053	0.780113
391	C	0.486678	0.521909	0.000252
392	C	0.469527	0.985747	0.000976
393	C	0.487169	0.967201	0.000231
394	H	0.443399	0.97254	0.001218
395	C	0.25914	0.630866	0.005507
396	H	0.285371	0.643987	0.006154
397	C	0.414325	0.649285	0.006241
398	C	0.378309	0.630792	0.005477
399	C	0.35989	0.594832	0.003697
400	C	0.378156	0.577061	0.002161
401	C	0.414412	0.594822	0.003886
402	C	0.432171	0.63104	0.006205
403	H	0.364839	0.550937	0.00108
404	H	0.458313	0.644365	0.006622
405	H	0.365173	0.643885	0.006109
406	C	0.359883	0.767556	0.006284
407	C	0.378363	0.75002	0.005536
408	C	0.414339	0.767536	0.003741
409	C	0.432136	0.803565	0.002219
410	C	0.414387	0.822071	0.003947
411	C	0.378152	0.803629	0.006249
412	H	0.458272	0.816359	0.001107
413	H	0.364829	0.816448	0.006691
414	H	0.365248	0.723804	0.006184
415	C	0.439983	0.532199	0.303496
416	C	0.468136	0.540157	0.332603
417	C	0.477287	0.56793	0.029059
418	N	0.459826	0.585141	0.029825
419	C	0.432505	0.576604	0.33612
420	N	0.423447	0.550348	0.306937
421	H	0.496992	0.575323	0.051331
422	C	0.427933	0.507119	0.266151
423	H	0.445879	0.498518	0.25784
424	H	0.424513	0.518621	0.235701
425	H	0.403438	0.485055	0.275217
426	C	0.476918	0.910251	0.303457
427	C	0.468936	0.930421	0.33257
428	C	0.441168	0.911785	0.029041
429	N	0.424015	0.877126	0.029853
430	C	0.432599	0.858368	0.336178
431	N	0.458835	0.87558	0.30696
432	H	0.433765	0.924076	0.051327
433	C	0.502051	0.923308	0.26616
434	H	0.510614	0.94983	0.257822
435	H	0.49059	0.90837	0.235709
436	H	0.524144	0.920932	0.275291
437	C	0.27845	0.577865	0.046823
438	C	0.261836	0.578809	0.006591
439	C	0.277388	0.578082	0.298886
440	N	0.308188	0.579733	0.298906
441	C	0.323894	0.578825	0.004061
442	N	0.309046	0.579019	0.043741
443	H	0.268553	0.581744	0.268875
444	C	0.267288	0.580328	0.092855
445	H	0.285853	0.604615	0.107982
446	H	0.265639	0.559579	0.113454
447	C	0.43143	0.703154	0.046944
448	C	0.430398	0.685554	0.006755
449	C	0.430927	0.701677	0.298994
450	N	0.429312	0.730835	0.29896
451	C	0.430323	0.747524	0.004091
452	N	0.430219	0.732555	0.043797
453	H	0.42727	0.689209	0.268958
454	C	0.428927	0.689541	0.092979
455	H	0.430718	0.666377	0.093383
456	H	0.404628	0.683842	0.108082
457	H	0.449689	0.708624	0.113585
458	C	0.305921	0.73094	0.047032
459	C	0.323603	0.747409	0.006847
460	C	0.307471	0.73169	0.299122
461	N	0.278382	0.700857	0.29925
462	C	0.261583	0.685248	0.004385
463	N	0.27652	0.700329	0.04399
464	H	0.320045	0.740245	0.26911
465	C	0.319469	0.742279	0.093044
466	H	0.342643	0.767227	0.093339
467	H	0.325147	0.723766	0.108448
468	H	0.300341	0.744053	0.113446
469	C	0.486678	0.521909	0.333585
470	C	0.469527	0.985747	0.334309
471	C	0.487169	0.967201	0.333563
472	H	0.443399	0.97254	0.33455
473	C	0.25914	0.630866	0.33884
474	H	0.285371	0.643987	0.339487
475	C	0.414325	0.649285	0.339574
476	C	0.378309	0.630792	0.33881
477	C	0.35989	0.594832	0.337031
478	C	0.378156	0.577061	0.335493
479	C	0.414412	0.594822	0.33722
480	C	0.432171	0.63104	0.339541
481	H	0.364839	0.550937	0.334414
482	H	0.458313	0.644365	0.339955
483	H	0.365173	0.643885	0.339443
484	C	0.359883	0.767556	0.339618
485	C	0.378363	0.75002	0.33887
486	C	0.414339	0.767536	0.337072
487	C	0.432136	0.803565	0.33555
488	C	0.414387	0.822071	0.337277
489	C	0.378152	0.803629	0.339581
490	H	0.458272	0.816359	0.334442
491	H	0.364829	0.816448	0.340026
492	H	0.365248	0.723804	0.339517
493	C	0.439983	0.532199	0.63683
494	C	0.468136	0.540157	0.665938
495	C	0.477287	0.56793	0.362395
496	N	0.459826	0.585141	0.363159
497	C	0.432505	0.576604	0.669452
498	N	0.423447	0.550348	0.640272
499	H	0.496992	0.575323	0.384666
500	C	0.427933	0.507119	0.599485
501	H	0.445879	0.498518	0.591172
502	H	0.424513	0.518621	0.569036
503	H	0.403438	0.485055	0.608549
504	C	0.476918	0.910251	0.636793
505	C	0.468936	0.930421	0.665905
506	C	0.441168	0.911785	0.362374
507	N	0.424015	0.877126	0.363186
508	C	0.432599	0.858368	0.669512
509	N	0.458835	0.87558	0.640292
510	H	0.433765	0.924076	0.384662
511	C	0.502051	0.923308	0.599495
512	H	0.510614	0.94983	0.591156
513	H	0.49059	0.90837	0.569043
514	H	0.524144	0.920932	0.608624
515	C	0.27845	0.577865	0.380156
516	C	0.261836	0.578809	0.339925
517	C	0.277388	0.578082	0.632218
518	N	0.308188	0.579733	0.632239
519	C	0.323894	0.578825	0.337395
520	N	0.309046	0.579019	0.377074
521	H	0.268553	0.581744	0.60221
522	C	0.267288	0.580328	0.42619
523	H	0.285853	0.604615	0.441317
524	H	0.265639	0.559579	0.446787
525	C	0.43143	0.703154	0.380277
526	C	0.430398	0.685554	0.34009
527	C	0.430927	0.701677	0.632326
528	N	0.429312	0.730835	0.632293
529	C	0.430323	0.747524	0.337422
530	N	0.430219	0.732555	0.377131
531	H	0.42727	0.689209	0.602291
532	C	0.428927	0.689541	0.426311
533	H	0.430718	0.666377	0.426716
534	H	0.404628	0.683842	0.441415
535	H	0.449689	0.708624	0.446919
536	C	0.305921	0.73094	0.380364
537	C	0.323603	0.747409	0.340181
538	C	0.307471	0.73169	0.632454
539	N	0.278382	0.700857	0.632582
540	C	0.261583	0.685248	0.337719
541	N	0.27652	0.700329	0.377323
542	H	0.320045	0.740245	0.602443
543	C	0.319469	0.742279	0.426379
544	H	0.342643	0.767227	0.426672
545	H	0.325147	0.723766	0.441782
546	H	0.300341	0.744053	0.44678
547	C	0.486678	0.521909	0.666919
548	C	0.469527	0.985747	0.667643
549	C	0.487169	0.967201	0.666895
550	H	0.443399	0.97254	0.667885
551	C	0.25914	0.630866	0.672173
552	H	0.285371	0.643987	0.672823
553	C	0.414325	0.649285	0.672907
554	C	0.378309	0.630792	0.672143
555	C	0.35989	0.594832	0.670364
556	C	0.378156	0.577061	0.668825
557	C	0.414412	0.594822	0.670553
558	C	0.432171	0.63104	0.672874
559	H	0.364839	0.550937	0.667747
560	H	0.458313	0.644365	0.673288
561	H	0.365173	0.643885	0.672776
562	C	0.359883	0.767556	0.672951
563	C	0.378363	0.75002	0.672203
564	C	0.414339	0.767536	0.670408
565	C	0.432136	0.803565	0.668882
566	C	0.414387	0.822071	0.67061
567	C	0.378152	0.803629	0.672918
568	H	0.458272	0.816359	0.667774
569	H	0.364829	0.816448	0.673359
570	H	0.365248	0.723804	0.67285
571	C	0.439983	0.532199	0.970163
572	C	0.468136	0.540157	0.999271
573	C	0.477287	0.56793	0.695728
574	N	0.459826	0.585141	0.696492
575	C	0.432505	0.576604	0.002788
576	N	0.423447	0.550348	0.973605
577	H	0.496992	0.575323	0.717999
578	C	0.427933	0.507119	0.932818
579	H	0.445879	0.498518	0.924509
580	H	0.424513	0.518621	0.902369
581	H	0.403438	0.485055	0.941886
582	C	0.476918	0.910251	0.970126
583	C	0.468936	0.930421	0.999238
584	C	0.441168	0.911785	0.695707
585	N	0.424015	0.877126	0.696519
586	C	0.432599	0.858368	0.002845
587	N	0.458835	0.87558	0.973629
588	H	0.433765	0.924076	0.717995
589	C	0.502051	0.923308	0.932828
590	H	0.510614	0.94983	0.924489
591	H	0.49059	0.90837	0.902376
592	H	0.524144	0.920932	0.941957
593	C	0.27845	0.577865	0.713492
594	C	0.261836	0.578809	0.673258
595	C	0.277388	0.578082	0.965555
596	N	0.308188	0.579733	0.965575
597	C	0.323894	0.578825	0.670728
598	N	0.309046	0.579019	0.71041
599	H	0.268553	0.581744	0.935543
600	C	0.267288	0.580328	0.759523
601	H	0.285853	0.604615	0.77465
602	H	0.265639	0.559579	0.78012
603	C	0.43143	0.703154	0.71361
604	C	0.430398	0.685554	0.673423
605	C	0.430927	0.701677	0.965663
606	N	0.429312	0.730835	0.965629
607	C	0.430323	0.747524	0.670755
608	N	0.430219	0.732555	0.710464
609	H	0.42727	0.689209	0.935624
610	C	0.428927	0.689541	0.759648
611	H	0.430718	0.666377	0.760049
612	H	0.404628	0.683842	0.774751
613	H	0.449689	0.708624	0.780252
614	C	0.305921	0.73094	0.713697
615	C	0.323603	0.747409	0.673514
616	C	0.307471	0.73169	0.965787
617	N	0.278382	0.700857	0.965919
618	C	0.261583	0.685248	0.671052
619	N	0.27652	0.700329	0.710659
620	H	0.320045	0.740245	0.935776
621	C	0.319469	0.742279	0.759712
622	H	0.342643	0.767227	0.760008
623	H	0.325147	0.723766	0.775115
624	H	0.300341	0.744053	0.780113
625	C	0.541891	0.022386	0.000228
626	C	0.522868	0.039534	0.000976
627	C	0.986677	0.021908	0.000252
628	C	0.969527	0.485749	0.000976
629	C	0.987169	0.4672	0.000231
630	C	0.523343	0.486211	0.000983
631	H	0.943399	0.472539	0.001218
632	H	0.536567	0.47331	0.001205
633	H	0.535777	0.06565	0.001222
634	C	0.741626	0.094869	0.00623
635	C	0.759142	0.130868	0.005507
636	C	0.741587	0.149288	0.003775
637	C	0.705543	0.131036	0.00231
638	C	0.687065	0.094793	0.003947
639	C	0.705539	0.077033	0.006161
640	H	0.692718	0.144348	0.001323
641	H	0.692736	0.050901	0.006502
642	H	0.785372	0.143988	0.006154
643	C	0.914326	0.149285	0.006241
644	C	0.878309	0.130792	0.005477
645	C	0.85989	0.094834	0.003697
646	C	0.878156	0.077063	0.002161
647	C	0.914412	0.094822	0.003886
648	C	0.932171	0.13104	0.006205
649	H	0.86484	0.050938	0.00108
650	H	0.958315	0.144366	0.006622
651	H	0.865172	0.143885	0.006109
652	C	0.859882	0.267555	0.006284
653	C	0.878365	0.250022	0.005536
654	C	0.914339	0.267538	0.003741
655	C	0.932137	0.303567	0.002219
656	C	0.914387	0.32207	0.003947
657	C	0.878152	0.303631	0.006249
658	H	0.958271	0.316358	0.001107
659	H	0.864828	0.316448	0.006691
660	H	0.865248	0.223804	0.006184
661	C	0.598842	0.069075	0.303435
662	C	0.578681	0.040937	0.332559
663	C	0.597333	0.031841	0.029054
664	N	0.632008	0.049358	0.029864
665	C	0.650755	0.076685	0.336173
666	N	0.633529	0.085683	0.306942
667	H	0.585047	0.012149	0.051334
668	C	0.585767	0.08112	0.266126
669	H	0.559233	0.063151	0.257794
670	H	0.600711	0.084594	0.235675
671	H	0.58813	0.105575	0.275238
672	C	0.939984	0.0322	0.303496
673	C	0.968137	0.040158	0.332603
674	C	0.977288	0.06793	0.02906
675	N	0.959825	0.085141	0.029825
676	C	0.932505	0.076604	0.33612
677	N	0.923448	0.050349	0.306937
678	H	0.996992	0.075324	0.051331
679	C	0.927932	0.007119	0.266151
680	H	0.945878	0.998516	0.25784
681	H	0.924514	0.018623	0.235701
682	H	0.903436	0.985053	0.275217
683	C	0.97692	0.410253	0.303457
684	C	0.968938	0.430423	0.33257
685	C	0.941166	0.411784	0.029041
686	N	0.924015	0.377128	0.029853
687	C	0.932601	0.35837	0.336178
688	N	0.958836	0.375582	0.30696
689	H	0.933765	0.424076	0.051327
690	C	0.002051	0.423308	0.26616
691	H	0.990591	0.408372	0.235709
692	C	0.778451	0.077865	0.046823
693	C	0.761837	0.07881	0.006591
694	C	0.777388	0.078083	0.298886
695	N	0.808188	0.079735	0.298906
696	C	0.823896	0.078826	0.004061
697	N	0.809047	0.079019	0.043741
698	H	0.768552	0.081744	0.268875
699	C	0.767287	0.080329	0.092855
700	H	0.742312	0.07851	0.093253
701	H	0.785852	0.104616	0.107982
702	H	0.765639	0.059578	0.113454
703	C	0.93143	0.203156	0.046944
704	C	0.930398	0.185556	0.006755
705	C	0.930928	0.201678	0.298994
706	N	0.929314	0.230837	0.29896
707	C	0.930324	0.247526	0.004091
708	N	0.930218	0.232557	0.043797
709	H	0.927271	0.18921	0.268958
710	C	0.928927	0.189541	0.092979
711	H	0.930717	0.166377	0.093383
712	H	0.904629	0.183843	0.108082
713	H	0.94969	0.208625	0.113585
714	C	0.805923	0.230941	0.047031
715	C	0.823604	0.247411	0.006847
716	C	0.807472	0.23169	0.299122
717	N	0.778381	0.200857	0.29925
718	C	0.761582	0.185249	0.004385
719	N	0.776521	0.200329	0.04399
720	H	0.820045	0.240245	0.26911
721	C	0.819468	0.24228	0.093044
722	H	0.842644	0.267229	0.093339
723	H	0.825147	0.223766	0.108448
724	H	0.80034	0.244053	0.113446
725	C	0.541891	0.022386	0.333559
726	C	0.522868	0.039534	0.334309
727	C	0.986677	0.021908	0.333585
728	C	0.969527	0.485749	0.334309
729	C	0.987169	0.4672	0.333563
730	C	0.523343	0.486211	0.334315
731	H	0.943399	0.472539	0.33455
732	H	0.536567	0.47331	0.334537
733	H	0.535777	0.06565	0.334553
734	C	0.741626	0.094869	0.339564
735	C	0.759142	0.130868	0.33884
736	C	0.741587	0.149288	0.337109
737	C	0.705543	0.131036	0.335641
738	C	0.687065	0.094793	0.337277
739	C	0.705539	0.077033	0.339494
740	H	0.692718	0.144348	0.334655
741	H	0.692736	0.050901	0.339837
742	H	0.785372	0.143988	0.339487
743	C	0.914326	0.149285	0.339574
744	C	0.878309	0.130792	0.33881
745	C	0.85989	0.094834	0.337031
746	C	0.878156	0.077063	0.335493
747	C	0.914412	0.094822	0.33722
748	C	0.932171	0.13104	0.339541
749	H	0.86484	0.050938	0.334414
750	H	0.958315	0.144366	0.339955
751	H	0.865172	0.143885	0.339443
752	C	0.859882	0.267555	0.339618
753	C	0.878365	0.250022	0.33887
754	C	0.914339	0.267538	0.337072
755	C	0.932137	0.303567	0.33555
756	C	0.914387	0.32207	0.337277
757	C	0.878152	0.303631	0.339581
758	H	0.958271	0.316358	0.334441
759	H	0.864828	0.316448	0.340026
760	H	0.865248	0.223804	0.339517
761	C	0.598842	0.069075	0.636769
762	C	0.578681	0.040937	0.665891
763	C	0.597333	0.031841	0.362388
764	N	0.632008	0.049358	0.363196
765	C	0.650755	0.076685	0.669509
766	N	0.633529	0.085683	0.640275
767	H	0.585047	0.012149	0.384669
768	C	0.585767	0.08112	0.599458
769	H	0.559233	0.063151	0.591129
770	H	0.600711	0.084594	0.569009
771	H	0.58813	0.105575	0.608573
772	C	0.939984	0.0322	0.63683
773	C	0.968137	0.040158	0.665938
774	C	0.977288	0.06793	0.362395
775	N	0.959825	0.085141	0.363159
776	C	0.932505	0.076604	0.669452
777	N	0.923448	0.050349	0.640272
778	H	0.996992	0.075324	0.384666
779	C	0.927932	0.007119	0.599485
780	H	0.945878	0.998516	0.591172
781	H	0.924514	0.018623	0.569036
782	H	0.903436	0.985053	0.608549
783	C	0.97692	0.410253	0.636793
784	C	0.968938	0.430423	0.665905
785	C	0.941166	0.411784	0.362374
786	N	0.924015	0.377128	0.363186
787	C	0.932601	0.35837	0.669512
788	N	0.958836	0.375582	0.640292
789	H	0.933765	0.424076	0.384662
790	C	0.002051	0.423308	0.599495
791	H	0.990591	0.408372	0.569043
792	C	0.778451	0.077865	0.380156
793	C	0.761837	0.07881	0.339925
794	C	0.777388	0.078083	0.632218
795	N	0.808188	0.079735	0.632239
796	C	0.823896	0.078826	0.337395
797	N	0.809047	0.079019	0.377074
798	H	0.768552	0.081744	0.60221
799	C	0.767287	0.080329	0.42619
800	H	0.742312	0.07851	0.426588
801	H	0.785852	0.104616	0.441317
802	H	0.765639	0.059578	0.446787
803	C	0.93143	0.203156	0.380277
804	C	0.930398	0.185556	0.34009
805	C	0.930928	0.201678	0.632326
806	N	0.929314	0.230837	0.632293
807	C	0.930324	0.247526	0.337422
808	N	0.930218	0.232557	0.377131
809	H	0.927271	0.18921	0.602291
810	C	0.928927	0.189541	0.426311
811	H	0.930717	0.166377	0.426716
812	H	0.904629	0.183843	0.441415
813	H	0.94969	0.208625	0.446919
814	C	0.805923	0.230941	0.380364
815	C	0.823604	0.247411	0.340181
816	C	0.807472	0.23169	0.632454
817	N	0.778381	0.200857	0.632582
818	C	0.761582	0.185249	0.337715
819	N	0.776521	0.200329	0.377323
820	H	0.820045	0.240245	0.602443
821	C	0.819468	0.24228	0.426379
822	H	0.842644	0.267229	0.426672
823	H	0.825147	0.223766	0.441782
824	H	0.80034	0.244053	0.44678
825	C	0.541891	0.022386	0.666892
826	C	0.522868	0.039534	0.667643
827	C	0.986677	0.021908	0.666919
828	C	0.969527	0.485749	0.667643
829	C	0.987169	0.4672	0.666895
830	C	0.523343	0.486211	0.66765
831	H	0.943399	0.472539	0.667885
832	H	0.536567	0.47331	0.667872
833	H	0.535777	0.06565	0.667885
834	C	0.741626	0.094869	0.672897
835	C	0.759142	0.130868	0.672173
836	C	0.741587	0.149288	0.670442
837	C	0.705543	0.131036	0.668973
838	C	0.687065	0.094793	0.67061
839	C	0.705539	0.077033	0.672827
840	H	0.692718	0.144348	0.66799
841	H	0.692736	0.050901	0.67317
842	H	0.785372	0.143988	0.672823
843	C	0.914326	0.149285	0.672907
844	C	0.878309	0.130792	0.672143
845	C	0.85989	0.094834	0.670364
846	C	0.878156	0.077063	0.668825
847	C	0.914412	0.094822	0.670553
848	C	0.932171	0.13104	0.672874
849	H	0.86484	0.050938	0.667747
850	H	0.958315	0.144366	0.673288
851	H	0.865172	0.143885	0.672776
852	C	0.859882	0.267555	0.672951
853	C	0.878365	0.250022	0.672203
854	C	0.914339	0.267538	0.670408
855	C	0.932137	0.303567	0.668882
856	C	0.914387	0.32207	0.67061
857	C	0.878152	0.303631	0.672918
858	H	0.958271	0.316358	0.667774
859	H	0.864828	0.316448	0.673359
860	H	0.865248	0.223804	0.67285
861	C	0.598842	0.069075	0.970102
862	C	0.578681	0.040937	0.999228
863	C	0.597333	0.031841	0.695721
864	N	0.632008	0.049358	0.696529
865	C	0.650755	0.076685	0.002842
866	N	0.633529	0.085683	0.973608
867	H	0.585047	0.012149	0.718002
868	C	0.585767	0.08112	0.932791
869	H	0.559233	0.063151	0.924462
870	H	0.600711	0.084594	0.902342
871	H	0.58813	0.105575	0.941906
872	C	0.939984	0.0322	0.970163
873	C	0.968137	0.040158	0.999271
874	C	0.977288	0.06793	0.695728
875	N	0.959825	0.085141	0.696492
876	C	0.932505	0.076604	0.002788
877	N	0.923448	0.050349	0.973605
878	H	0.996992	0.075324	0.717999
879	C	0.927932	0.007119	0.932818
880	H	0.945878	0.998516	0.924509
881	H	0.924514	0.018623	0.902369
882	H	0.903436	0.985053	0.941886
883	C	0.97692	0.410253	0.970126
884	C	0.968938	0.430423	0.999238
885	C	0.941166	0.411784	0.695707
886	N	0.924015	0.377128	0.696519
887	C	0.932601	0.35837	0.002845
888	N	0.958836	0.375582	0.973629
889	H	0.933765	0.424076	0.717995
890	C	0.002051	0.423308	0.932828
891	H	0.990591	0.408372	0.902376
892	C	0.778451	0.077865	0.713492
893	C	0.761837	0.07881	0.673258
894	C	0.777388	0.078083	0.965555
895	N	0.808188	0.079735	0.965575
896	C	0.823896	0.078826	0.670728
897	N	0.809047	0.079019	0.71041
898	H	0.768552	0.081744	0.935543
899	C	0.767287	0.080329	0.759523
900	H	0.742312	0.07851	0.759921
901	H	0.785852	0.104616	0.77465
902	H	0.765639	0.059578	0.78012
903	C	0.93143	0.203156	0.71361
904	C	0.930398	0.185556	0.673423
905	C	0.930928	0.201678	0.965663
906	N	0.929314	0.230837	0.965629
907	C	0.930324	0.247526	0.670755
908	N	0.930218	0.232557	0.710464
909	H	0.927271	0.18921	0.935624
910	C	0.928927	0.189541	0.759648
911	H	0.930717	0.166377	0.760049
912	H	0.904629	0.183843	0.774751
913	H	0.94969	0.208625	0.780252
914	C	0.805923	0.230941	0.713697
915	C	0.823604	0.247411	0.673514
916	C	0.807472	0.23169	0.965787
917	N	0.778381	0.200857	0.965919
918	C	0.761582	0.185249	0.671052
919	N	0.776521	0.200329	0.710659
920	H	0.820045	0.240245	0.935776
921	C	0.819468	0.24228	0.759712
922	H	0.842644	0.267229	0.760008
923	H	0.825147	0.223766	0.775115
924	H	0.80034	0.244053	0.780113
925	C	0.54189	0.522386	0.000228
926	C	0.522868	0.539534	0.000976
927	C	0.986678	0.521909	0.000252
928	C	0.969528	0.985747	0.000976
929	C	0.98717	0.967201	0.000231
930	C	0.523344	0.986212	0.000983
931	H	0.9434	0.97254	0.001218
932	H	0.536567	0.973308	0.001205
933	H	0.535778	0.56565	0.001222
934	C	0.741626	0.594868	0.00623
935	C	0.759141	0.630866	0.005507
936	C	0.741589	0.649288	0.003775
937	C	0.705542	0.631035	0.00231
938	C	0.687066	0.594794	0.003947
939	C	0.705539	0.577033	0.006161
940	H	0.692718	0.644347	0.001323
941	H	0.692736	0.550901	0.006502
942	H	0.785371	0.643987	0.006154
943	C	0.914326	0.649285	0.006241
944	C	0.87831	0.630792	0.005477
945	C	0.859889	0.594832	0.003697
946	C	0.878156	0.577061	0.002161
947	C	0.914411	0.594822	0.003886
948	C	0.932171	0.63104	0.006205
949	H	0.86484	0.550937	0.00108
950	H	0.958314	0.644365	0.006622
951	H	0.865174	0.643885	0.006109
952	C	0.859883	0.767556	0.006284
953	C	0.878364	0.75002	0.005536
954	C	0.91434	0.767536	0.003741
955	C	0.932136	0.803565	0.002219
956	C	0.914387	0.822071	0.003947
957	C	0.878153	0.803629	0.006249
958	H	0.958272	0.816359	0.001107
959	H	0.864828	0.816448	0.006691
960	H	0.865247	0.723804	0.006184
961	C	0.598842	0.569075	0.303435
962	C	0.578681	0.540938	0.332559
963	C	0.597336	0.531842	0.029054
964	N	0.632007	0.549357	0.029864
965	C	0.650754	0.576683	0.336173
966	N	0.633528	0.585682	0.306942
967	H	0.585047	0.512149	0.051334
968	C	0.585766	0.581119	0.266125
969	H	0.559233	0.563152	0.257794
970	H	0.600711	0.584593	0.235675
971	H	0.58813	0.605574	0.275238
972	C	0.939983	0.532199	0.303496
973	C	0.968137	0.540157	0.332603
974	C	0.977288	0.56793	0.029059
975	N	0.959825	0.585141	0.029825
976	C	0.932506	0.576604	0.33612
977	N	0.923447	0.550348	0.306937
978	H	0.996992	0.575323	0.051331
979	C	0.927932	0.507119	0.266151
980	H	0.945879	0.498518	0.25784
981	H	0.924513	0.518621	0.235701
982	H	0.903437	0.485055	0.275217
983	C	0.976919	0.910251	0.303457
984	C	0.968937	0.930421	0.33257
985	C	0.941169	0.911785	0.029041
986	N	0.924014	0.877126	0.029853
987	C	0.9326	0.858368	0.336178
988	N	0.958835	0.87558	0.30696
989	H	0.933765	0.924076	0.051327
990	C	0.002051	0.923308	0.26616
991	H	0.99059	0.90837	0.235709
992	C	0.778451	0.577865	0.046823
993	C	0.761837	0.578809	0.006591
994	C	0.777387	0.578082	0.298886
995	N	0.808188	0.579733	0.298906
996	C	0.823895	0.578825	0.004061
997	N	0.809047	0.579019	0.043741
998	H	0.768552	0.581744	0.268875
999	C	0.767289	0.580328	0.092855
1000	H	0.742312	0.578511	0.093253
1001	H	0.785854	0.604615	0.107982
1002	H	0.76564	0.559579	0.113454
1003	C	0.931429	0.703154	0.046944
1004	C	0.930399	0.685554	0.006755
1005	C	0.930927	0.701677	0.298994
1006	N	0.929313	0.730835	0.29896
1007	C	0.930323	0.747524	0.004091
1008	N	0.93022	0.732555	0.043797
1009	H	0.927271	0.689209	0.268958
1010	C	0.928927	0.689541	0.092979
1011	H	0.930717	0.666377	0.093383
1012	H	0.904628	0.683842	0.108082
1013	H	0.949689	0.708624	0.113585
1014	C	0.805922	0.73094	0.047032
1015	C	0.823603	0.747409	0.006847
1016	C	0.807472	0.73169	0.299122
1017	N	0.778382	0.700857	0.29925
1018	C	0.761584	0.685248	0.004385
1019	N	0.776521	0.700329	0.04399
1020	H	0.820045	0.740245	0.26911
1021	C	0.81947	0.742279	0.093044
1022	H	0.842643	0.767227	0.093339
1023	H	0.825147	0.723766	0.108448
1024	H	0.800341	0.744053	0.113446
1025	C	0.54189	0.522386	0.333559
1026	C	0.522868	0.539534	0.334309
1027	C	0.986678	0.521909	0.333585
1028	C	0.969528	0.985747	0.334309
1029	C	0.98717	0.967201	0.333563
1030	C	0.523344	0.986212	0.334315
1031	H	0.9434	0.97254	0.33455
1032	H	0.536567	0.973308	0.334537
1033	H	0.535778	0.56565	0.334553
1034	C	0.741626	0.594868	0.339564
1035	C	0.759141	0.630866	0.33884
1036	C	0.741589	0.649288	0.337109
1037	C	0.705542	0.631035	0.335641
1038	C	0.687066	0.594794	0.337277
1039	C	0.705539	0.577033	0.339494
1040	H	0.692718	0.644347	0.334655
1041	H	0.692736	0.550901	0.339837
1042	H	0.785371	0.643987	0.339487
1043	C	0.914326	0.649285	0.339574
1044	C	0.87831	0.630792	0.33881
1045	C	0.859889	0.594832	0.337031
1046	C	0.878156	0.577061	0.335493
1047	C	0.914411	0.594822	0.33722
1048	C	0.932171	0.63104	0.339541
1049	H	0.86484	0.550937	0.334414
1050	H	0.958314	0.644365	0.339955
1051	H	0.865174	0.643885	0.339443
1052	C	0.859883	0.767556	0.339618
1053	C	0.878364	0.75002	0.33887
1054	C	0.91434	0.767536	0.337072
1055	C	0.932136	0.803565	0.33555
1056	C	0.914387	0.822071	0.337277
1057	C	0.878153	0.803629	0.339581
1058	H	0.958272	0.816359	0.334442
1059	H	0.864828	0.816448	0.340026
1060	H	0.865247	0.723804	0.339517
1061	C	0.598842	0.569075	0.636769
1062	C	0.578681	0.540938	0.665891
1063	C	0.597336	0.531842	0.362388
1064	N	0.632007	0.549357	0.363196
1065	C	0.650754	0.576683	0.669509
1066	N	0.633528	0.585682	0.640275
1067	H	0.585047	0.512149	0.384669
1068	C	0.585766	0.581119	0.599458
1069	H	0.559233	0.563152	0.591129
1070	H	0.600711	0.584593	0.569009
1071	H	0.58813	0.605574	0.608573
1072	C	0.939983	0.532199	0.63683
1073	C	0.968137	0.540157	0.665938
1074	C	0.977288	0.56793	0.362395
1075	N	0.959825	0.585141	0.363159
1076	C	0.932506	0.576604	0.669452
1077	N	0.923447	0.550348	0.640272
1078	H	0.996992	0.575323	0.384666
1079	C	0.927932	0.507119	0.599485
1080	H	0.945879	0.498518	0.591172
1081	H	0.924513	0.518621	0.569036
1082	H	0.903437	0.485055	0.608549
1083	C	0.976919	0.910251	0.636793
1084	C	0.968937	0.930421	0.665905
1085	C	0.941169	0.911785	0.362374
1086	N	0.924014	0.877126	0.363186
1087	C	0.9326	0.858368	0.669512
1088	N	0.958835	0.87558	0.640292
1089	H	0.933765	0.924076	0.384662
1090	C	0.002051	0.923308	0.599495
1091	H	0.99059	0.90837	0.569043
1092	C	0.778451	0.577865	0.380156
1093	C	0.761837	0.578809	0.339925
1094	C	0.777387	0.578082	0.632218
1095	N	0.808188	0.579733	0.632239
1096	C	0.823895	0.578825	0.337395
1097	N	0.809047	0.579019	0.377074
1098	H	0.768552	0.581744	0.60221
1099	C	0.767289	0.580328	0.42619
1100	H	0.742312	0.578511	0.426588
1101	H	0.785854	0.604615	0.441317
1102	H	0.76564	0.559579	0.446787
1103	C	0.931429	0.703154	0.380277
1104	C	0.930399	0.685554	0.34009
1105	C	0.930927	0.701677	0.632326
1106	N	0.929313	0.730835	0.632293
1107	C	0.930323	0.747524	0.337422
1108	N	0.93022	0.732555	0.377131
1109	H	0.927271	0.689209	0.602291
1110	C	0.928927	0.689541	0.426311
1111	H	0.930717	0.666377	0.426716
1112	H	0.904628	0.683842	0.441415
1113	H	0.949689	0.708624	0.446919
1114	C	0.805922	0.73094	0.380364
1115	C	0.823603	0.747409	0.340181
1116	C	0.807472	0.73169	0.632454
1117	N	0.778382	0.700857	0.632582
1118	C	0.761584	0.685248	0.337719
1119	N	0.776521	0.700329	0.377323
1120	H	0.820045	0.740245	0.602443
1121	C	0.81947	0.742279	0.426379
1122	H	0.842643	0.767227	0.426672
1123	H	0.825147	0.723766	0.441782
1124	H	0.800341	0.744053	0.44678
1125	C	0.54189	0.522386	0.666892
1126	C	0.522868	0.539534	0.667643
1127	C	0.986678	0.521909	0.666919
1128	C	0.969528	0.985747	0.667643
1129	C	0.98717	0.967201	0.666895
1130	C	0.523344	0.986212	0.66765
1131	H	0.9434	0.97254	0.667885
1132	H	0.536567	0.973308	0.667872
1133	H	0.535778	0.56565	0.667885
1134	C	0.741626	0.594868	0.672897
1135	C	0.759141	0.630866	0.672173
1136	C	0.741589	0.649288	0.670442
1137	C	0.705542	0.631035	0.668973
1138	C	0.687066	0.594794	0.67061
1139	C	0.705539	0.577033	0.67283
1140	H	0.692718	0.644347	0.66799
1141	H	0.692736	0.550901	0.67317
1142	H	0.785371	0.643987	0.672823
1143	C	0.914326	0.649285	0.672907
1144	C	0.87831	0.630792	0.672143
1145	C	0.859889	0.594832	0.670364
1146	C	0.878156	0.577061	0.668825
1147	C	0.914411	0.594822	0.670553
1148	C	0.932171	0.63104	0.672874
1149	H	0.86484	0.550937	0.667747
1150	H	0.958314	0.644365	0.673288
1151	H	0.865174	0.643885	0.672776
1152	C	0.859883	0.767556	0.672951
1153	C	0.878364	0.75002	0.672203
1154	C	0.91434	0.767536	0.670408
1155	C	0.932136	0.803565	0.668882
1156	C	0.914387	0.822071	0.67061
1157	C	0.878153	0.803629	0.672918
1158	H	0.958272	0.816359	0.667774
1159	H	0.864828	0.816448	0.673359
1160	H	0.865247	0.723804	0.67285
1161	C	0.598842	0.569075	0.970102
1162	C	0.578681	0.540938	0.999228
1163	C	0.597336	0.531842	0.695721
1164	N	0.632007	0.549357	0.696529
1165	C	0.650754	0.576683	0.002842
1166	N	0.633528	0.585682	0.973608
1167	H	0.585047	0.512149	0.718002
1168	C	0.585766	0.581119	0.932791
1169	H	0.559233	0.563152	0.924462
1170	H	0.600711	0.584593	0.902342
1171	H	0.58813	0.605574	0.941906
1172	C	0.939983	0.532199	0.970163
1173	C	0.968137	0.540157	0.999271
1174	C	0.977288	0.56793	0.695728
1175	N	0.959825	0.585141	0.696492
1176	C	0.932506	0.576604	0.002788
1177	N	0.923447	0.550348	0.973605
1178	H	0.996992	0.575323	0.717999
1179	C	0.927932	0.507119	0.932818
1180	H	0.945879	0.498518	0.924509
1181	H	0.924513	0.518621	0.902369
1182	H	0.903437	0.485055	0.941886
1183	C	0.976919	0.910251	0.970126
1184	C	0.968937	0.930421	0.999238
1185	C	0.941169	0.911785	0.695707
1186	N	0.924014	0.877126	0.696519
1187	C	0.9326	0.858368	0.002845
1188	N	0.958835	0.87558	0.973629
1189	H	0.933765	0.924076	0.717995
1190	C	0.002051	0.923308	0.932828
1191	H	0.99059	0.90837	0.902376
1192	C	0.778451	0.577865	0.713492
1193	C	0.761837	0.578809	0.673258
1194	C	0.777387	0.578082	0.965555
1195	N	0.808188	0.579733	0.965575
1196	C	0.823895	0.578825	0.670728
1197	N	0.809047	0.579019	0.71041
1198	H	0.768552	0.581744	0.935543
1199	C	0.767289	0.580328	0.759523
1200	H	0.742312	0.578511	0.759921
1201	H	0.785854	0.604615	0.77465
1202	H	0.76564	0.559579	0.78012
1203	C	0.931429	0.703154	0.71361
1204	C	0.930399	0.685554	0.673423
1205	C	0.930927	0.701677	0.965663
1206	N	0.929313	0.730835	0.965629
1207	C	0.930323	0.747524	0.670755
1208	N	0.93022	0.732555	0.710464
1209	H	0.927271	0.689209	0.935624
1210	C	0.928927	0.689541	0.759648
1211	H	0.930717	0.666377	0.760049
1212	H	0.904628	0.683842	0.774751
1213	H	0.949689	0.708624	0.780252
1214	C	0.805922	0.73094	0.713697
1215	C	0.823603	0.747409	0.673514
1216	C	0.807472	0.73169	0.965787
1217	N	0.778382	0.700857	0.965919
1218	C	0.761584	0.685248	0.671052
1219	N	0.776521	0.700329	0.710659
1220	H	0.820045	0.740245	0.935776
1221	C	0.81947	0.742279	0.759712
1222	H	0.842643	0.767227	0.760008
1223	H	0.825147	0.723766	0.775115
1224	H	0.800341	0.744053	0.780113
