data_C504H288N288_2018-02-15_10:38:26
#******************************************
#
# CIF file created by Zeo++
# Zeo++ is an open source package to
# analyze microporous materials
#
#*******************************************

_cell_length_a		44.6674   
_cell_length_b		44.672   
_cell_length_c		29.6712   
_cell_angle_alpha		90   
_cell_angle_beta		90   
_cell_angle_gamma		120.01   

_symmetry_space_group_name_H-M		'P1'
_symmetry_Int_Tables_number		1
_symmetry_cell_setting		Monoclinic

loop_
_symmetry_equiv_pos_as_xyz
'+x,+y,+z'

loop_
_atom_site_label
_atom_site_type_symbol
_atom_site_fract_x
_atom_site_fract_y
_atom_site_fract_z
1	N	0.018009	0.038333	0.998799
2	C	0.040779	0.026477	0.99893
3	N	0.026788	0.491492	0.999318
4	C	0.095941	0.085138	0.323956
5	C	0.077561	0.048789	0.332322
6	N	0.097209	0.03385	0.007176
7	C	0.07862	0.105159	0.312066
8	H	0.096917	0.132222	0.304366
9	H	0.062708	0.104768	0.340188
10	H	0.062404	0.093892	0.282343
11	N	0.018009	0.038333	0.332131
12	C	0.040779	0.026477	0.332265
13	N	0.026788	0.491492	0.332651
14	C	0.095941	0.085138	0.65729
15	C	0.077561	0.048789	0.665655
16	N	0.097209	0.03385	0.340508
17	C	0.07862	0.105159	0.645399
18	H	0.096917	0.132222	0.637702
19	H	0.062708	0.104768	0.673521
20	H	0.062404	0.093892	0.615677
21	N	0.018009	0.038333	0.665466
22	C	0.040779	0.026477	0.665597
23	N	0.026788	0.491492	0.665985
24	C	0.095941	0.085138	0.990623
25	C	0.077561	0.048789	0.998988
26	N	0.097209	0.03385	0.673845
27	C	0.07862	0.105159	0.978732
28	H	0.096917	0.132222	0.971035
29	H	0.062708	0.104768	0.006853
30	H	0.062404	0.093892	0.94901
31	N	0.018009	0.538334	0.998799
32	C	0.040778	0.526476	0.99893
33	N	0.026787	0.991492	0.999318
34	C	0.09594	0.585137	0.323955
35	C	0.077561	0.548788	0.33232
36	N	0.09721	0.533852	0.007174
37	C	0.07862	0.605159	0.312066
38	H	0.096916	0.632223	0.304366
39	H	0.062709	0.604769	0.340188
40	H	0.062404	0.593893	0.282342
41	N	0.018009	0.538334	0.33213
42	C	0.040778	0.526476	0.332264
43	N	0.026787	0.991492	0.332652
44	C	0.09594	0.585137	0.65729
45	C	0.077561	0.548788	0.665655
46	N	0.09721	0.533852	0.340508
47	C	0.07862	0.605159	0.645399
48	H	0.096916	0.632223	0.637702
49	H	0.062709	0.604769	0.673521
50	H	0.062404	0.593893	0.615677
51	N	0.018009	0.538334	0.665463
52	C	0.040778	0.526476	0.665597
53	N	0.026787	0.991492	0.665985
54	C	0.09594	0.585137	0.990623
55	C	0.077561	0.548788	0.998988
56	N	0.09721	0.533852	0.673841
57	C	0.07862	0.605159	0.978732
58	H	0.096916	0.632223	0.971035
59	H	0.062709	0.604769	0.006853
60	H	0.062404	0.593893	0.94901
61	C	0.033631	0.430885	0.316403
62	H	0.042665	0.412605	0.310169
63	H	0.048215	0.446871	0.345008
64	H	0.03954	0.447018	0.286407
65	C	0.033631	0.430885	0.649737
66	H	0.042665	0.412605	0.643502
67	H	0.048215	0.446871	0.67834
68	H	0.03954	0.447018	0.619742
69	C	0.033631	0.430885	0.98307
70	H	0.042665	0.412605	0.976838
71	H	0.048215	0.446871	0.011672
72	H	0.03954	0.447018	0.953075
73	C	0.03363	0.930884	0.316402
74	H	0.042664	0.912608	0.310167
75	H	0.048216	0.946873	0.345004
76	H	0.03954	0.947018	0.286405
77	C	0.03363	0.930884	0.649737
78	H	0.042664	0.912608	0.643502
79	H	0.048216	0.946873	0.678337
80	H	0.03954	0.947018	0.619738
81	C	0.03363	0.930884	0.98307
82	H	0.042664	0.912608	0.976835
83	H	0.048216	0.946873	0.011671
84	H	0.03954	0.947018	0.953075
85	C	0.187522	0.101651	0.00191
86	C	0.150713	0.085093	0.334827
87	C	0.132585	0.102823	0.32572
88	H	0.146241	0.128822	0.319419
89	N	0.131056	0.05047	0.00825
90	C	0.187522	0.101651	0.335244
91	C	0.150713	0.085093	0.668162
92	C	0.132585	0.102823	0.659056
93	H	0.146241	0.128822	0.652753
94	N	0.131056	0.05047	0.341583
95	C	0.187522	0.101651	0.668577
96	C	0.150713	0.085093	0.001495
97	C	0.132585	0.102823	0.992389
98	H	0.146241	0.128822	0.986086
99	N	0.131056	0.05047	0.674916
100	C	0.187522	0.601651	0.00191
101	C	0.150713	0.585094	0.334826
102	C	0.132586	0.602825	0.325719
103	H	0.146242	0.628823	0.319419
104	N	0.131056	0.550471	0.008249
105	C	0.187522	0.601651	0.335243
106	C	0.150713	0.585094	0.668159
107	C	0.132586	0.602825	0.659052
108	H	0.146242	0.628823	0.652753
109	N	0.131056	0.550471	0.341583
110	C	0.187522	0.601651	0.668577
111	C	0.150713	0.585094	0.001495
112	C	0.132586	0.602825	0.992389
113	H	0.146242	0.628823	0.986086
114	N	0.131056	0.550471	0.674916
115	C	0.242397	0.153121	0.998273
116	N	0.207342	0.136953	0.000353
117	N	0.203938	0.082677	0.00162
118	C	0.239056	0.098374	0.999342
119	H	0.222681	0.04421	0.074798
120	C	0.242397	0.153121	0.331606
121	N	0.207342	0.136953	0.333685
122	N	0.203938	0.082677	0.334953
123	C	0.239056	0.098374	0.332672
124	H	0.222681	0.04421	0.408133
125	C	0.242397	0.153121	0.66494
126	N	0.207342	0.136953	0.66702
127	N	0.203938	0.082677	0.668287
128	C	0.239056	0.098374	0.666005
129	H	0.222681	0.04421	0.741466
130	C	0.242397	0.65312	0.998273
131	N	0.207342	0.636953	0.000353
132	N	0.203938	0.582676	0.00162
133	C	0.239056	0.598376	0.999338
134	H	0.222681	0.54421	0.074797
135	C	0.242397	0.65312	0.331605
136	N	0.207342	0.636953	0.333684
137	N	0.203938	0.582676	0.334952
138	C	0.239056	0.598376	0.332671
139	H	0.222681	0.54421	0.408129
140	C	0.242397	0.65312	0.66494
141	N	0.207342	0.636953	0.66702
142	N	0.203938	0.582676	0.668287
143	C	0.239056	0.598376	0.666005
144	H	0.222681	0.54421	0.741466
145	C	0.249577	0.064166	0.080033
146	C	0.249577	0.064166	0.413367
147	C	0.249577	0.064166	0.7467
148	C	0.249577	0.564167	0.080032
149	C	0.249577	0.564167	0.413367
150	C	0.249577	0.564167	0.7467
151	C	0.492155	0.468697	0.999183
152	N	0.471145	0.48268	0.998991
153	C	0.483019	0.017317	0.9986
154	N	0.257399	0.133309	0.997562
155	C	0.35624	0.092088	0.998192
156	N	0.372451	0.073242	0.000107
157	C	0.40777	0.088785	0.001428
158	N	0.42671	0.124185	0.00106
159	C	0.410958	0.143556	0.998961
160	N	0.376018	0.126901	0.997394
161	C	0.417105	0.267038	0.997741
162	N	0.436008	0.302077	0.000245
163	C	0.420542	0.321912	0.001802
164	N	0.385144	0.305512	0.001158
165	C	0.365706	0.270414	0.998462
166	N	0.382301	0.252081	0.996696
167	C	0.424368	0.068578	0.334205
168	C	0.406721	0.032783	0.324657
169	C	0.424448	0.01387	0.322874
170	C	0.460724	0.031797	0.33176
171	N	0.475588	0.066325	0.007008
172	H	0.380779	0.020477	0.317962
173	N	0.458944	0.083523	0.008054
174	C	0.404588	0.976643	0.310357
175	H	0.377631	0.967952	0.302074
176	H	0.404602	0.960853	0.338378
177	H	0.416252	0.971977	0.280828
178	C	0.44082	0.358732	0.335073
179	C	0.476923	0.376905	0.327736
180	C	0.495923	0.413551	0.32615
181	C	0.477718	0.431908	0.332781
182	N	0.442922	0.412218	0.006083
183	H	0.48945	0.363279	0.322645
184	N	0.425681	0.378371	0.007056
185	C	0.53363	0.430885	0.316403
186	H	0.542663	0.412605	0.310169
187	H	0.548215	0.446871	0.345008
188	H	0.53954	0.447018	0.286407
189	C	0.320254	0.078822	0.996049
190	C	0.299881	0.06902	0.035529
191	C	0.268978	0.070732	0.037078
192	C	0.259043	0.081923	0.997838
193	N	0.280346	0.090795	0.29481
194	H	0.309406	0.064305	0.064405
195	N	0.308847	0.089484	0.293891
196	H	0.260159	0.055393	0.106805
197	H	0.250386	0.087774	0.091492
198	C	0.430273	0.244256	0.995419
199	C	0.440513	0.233885	0.034714
200	C	0.43876	0.201249	0.036294
201	C	0.427279	0.179985	0.997181
202	N	0.418217	0.192302	0.294243
203	H	0.445254	0.248117	0.063597
204	N	0.419469	0.22208	0.293369
205	C	0.445624	0.188578	0.079184
206	H	0.45461	0.208043	0.105834
207	H	0.465525	0.181601	0.073717
208	H	0.422088	0.165833	0.090945
209	C	0.265079	0.189101	0.995897
210	C	0.275659	0.209802	0.035085
211	C	0.308224	0.240784	0.036318
212	C	0.329232	0.250378	0.996999
213	N	0.31688	0.228822	0.294223
214	H	0.26146	0.200475	0.064026
215	N	0.287104	0.20026	0.293663
216	C	0.321083	0.260555	0.079012
217	H	0.301766	0.250142	0.105844
218	H	0.327928	0.287378	0.073355
219	H	0.343948	0.259932	0.090622
220	C	0.492155	0.468697	0.332517
221	N	0.471145	0.48268	0.332325
222	C	0.483019	0.017317	0.331931
223	N	0.257399	0.133309	0.330896
224	C	0.35624	0.092088	0.331526
225	N	0.372451	0.073242	0.333439
226	C	0.40777	0.088785	0.334762
227	N	0.42671	0.124185	0.334394
228	C	0.410958	0.143556	0.332295
229	N	0.376018	0.126901	0.330728
230	C	0.417105	0.267038	0.331072
231	N	0.436008	0.302077	0.333577
232	C	0.420542	0.321912	0.335133
233	N	0.385144	0.305512	0.334491
234	C	0.365706	0.270414	0.331794
235	N	0.382301	0.252081	0.330028
236	C	0.424368	0.068578	0.667539
237	C	0.406721	0.032783	0.657991
238	C	0.424448	0.01387	0.656208
239	C	0.460724	0.031797	0.665095
240	N	0.475588	0.066325	0.340343
241	H	0.380779	0.020477	0.651297
242	N	0.458944	0.083523	0.341388
243	C	0.404588	0.976643	0.643691
244	H	0.377631	0.967952	0.635407
245	H	0.404602	0.960853	0.671711
246	H	0.416252	0.971977	0.61416
247	C	0.44082	0.358732	0.668405
248	C	0.476923	0.376905	0.661071
249	C	0.495923	0.413551	0.659484
250	C	0.477718	0.431908	0.666113
251	N	0.442922	0.412218	0.339416
252	H	0.48945	0.363279	0.655979
253	N	0.425681	0.378371	0.34039
254	C	0.53363	0.430885	0.649737
255	H	0.542663	0.412605	0.643502
256	H	0.548215	0.446871	0.67834
257	H	0.53954	0.447018	0.619742
258	C	0.320254	0.078822	0.329381
259	C	0.299881	0.06902	0.368862
260	C	0.268978	0.070732	0.370413
261	C	0.259043	0.081923	0.331171
262	N	0.280346	0.090795	0.628144
263	H	0.309406	0.064305	0.397739
264	N	0.308847	0.089484	0.627224
265	H	0.260159	0.055393	0.44014
266	H	0.250386	0.087774	0.424826
267	C	0.430273	0.244256	0.328752
268	C	0.440513	0.233885	0.368047
269	C	0.43876	0.201249	0.369627
270	C	0.427279	0.179985	0.330513
271	N	0.418217	0.192302	0.627577
272	H	0.445254	0.248117	0.39693
273	N	0.419469	0.22208	0.626701
274	C	0.445624	0.188578	0.412517
275	H	0.45461	0.208043	0.439169
276	H	0.465525	0.181601	0.407051
277	H	0.422088	0.165833	0.42428
278	C	0.265079	0.189101	0.329231
279	C	0.275659	0.209802	0.368417
280	C	0.308224	0.240784	0.369651
281	C	0.329232	0.250378	0.330331
282	N	0.31688	0.228822	0.627557
283	H	0.26146	0.200475	0.397358
284	N	0.287104	0.20026	0.626998
285	C	0.321083	0.260555	0.412345
286	H	0.301766	0.250142	0.43918
287	H	0.327928	0.287378	0.406687
288	H	0.343948	0.259932	0.423956
289	C	0.492155	0.468697	0.66585
290	N	0.471145	0.48268	0.665658
291	C	0.483019	0.017317	0.665264
292	N	0.257399	0.133309	0.664229
293	C	0.35624	0.092088	0.664859
294	N	0.372451	0.073242	0.666774
295	C	0.40777	0.088785	0.668095
296	N	0.42671	0.124185	0.667727
297	C	0.410958	0.143556	0.665628
298	N	0.376018	0.126901	0.664061
299	C	0.417105	0.267038	0.664408
300	N	0.436008	0.302077	0.666912
301	C	0.420542	0.321912	0.668466
302	N	0.385144	0.305512	0.667825
303	C	0.365706	0.270414	0.665129
304	N	0.382301	0.252081	0.663363
305	C	0.424368	0.068578	0.000872
306	C	0.406721	0.032783	0.991324
307	C	0.424448	0.01387	0.989541
308	C	0.460724	0.031797	0.998428
309	N	0.475588	0.066325	0.673676
310	H	0.380779	0.020477	0.98463
311	N	0.458944	0.083523	0.674721
312	C	0.404588	0.976643	0.977024
313	H	0.377631	0.967952	0.968743
314	H	0.404602	0.960853	0.005044
315	H	0.416252	0.971977	0.947497
316	C	0.44082	0.358732	0.001741
317	C	0.476923	0.376905	0.994404
318	C	0.495923	0.413551	0.992817
319	C	0.477718	0.431908	0.999449
320	N	0.442922	0.412218	0.672753
321	H	0.48945	0.363279	0.989312
322	N	0.425681	0.378371	0.673723
323	C	0.53363	0.430885	0.98307
324	H	0.542663	0.412605	0.976838
325	H	0.548215	0.446871	0.011672
326	H	0.53954	0.447018	0.953075
327	C	0.320254	0.078822	0.662716
328	C	0.299881	0.06902	0.702195
329	C	0.268978	0.070732	0.703746
330	C	0.259043	0.081923	0.664505
331	N	0.280346	0.090795	0.961477
332	H	0.309406	0.064305	0.731072
333	N	0.308847	0.089484	0.96056
334	H	0.260159	0.055393	0.773473
335	H	0.250386	0.087774	0.758158
336	C	0.430273	0.244256	0.662086
337	C	0.440513	0.233885	0.701383
338	C	0.43876	0.201249	0.70296
339	C	0.427279	0.179985	0.663848
340	N	0.418217	0.192302	0.96091
341	H	0.445254	0.248117	0.730263
342	N	0.419469	0.22208	0.960037
343	C	0.445624	0.188578	0.74585
344	H	0.45461	0.208043	0.772502
345	H	0.465525	0.181601	0.740384
346	H	0.422088	0.165833	0.757612
347	C	0.265079	0.189101	0.662564
348	C	0.275659	0.209802	0.701754
349	C	0.308224	0.240784	0.702987
350	C	0.329232	0.250378	0.663666
351	N	0.31688	0.228822	0.96089
352	H	0.26146	0.200475	0.730694
353	N	0.287104	0.20026	0.960331
354	C	0.321083	0.260555	0.745678
355	H	0.301766	0.250142	0.772512
356	H	0.327928	0.287378	0.740023
357	H	0.343948	0.259932	0.757289
358	C	0.492156	0.968697	0.999187
359	N	0.471145	0.982679	0.998991
360	C	0.483019	0.517317	0.998597
361	N	0.257399	0.633311	0.997562
362	C	0.356239	0.592089	0.998192
363	N	0.372452	0.573243	0.000107
364	C	0.40777	0.588785	0.001428
365	N	0.426711	0.624185	0.00106
366	C	0.410958	0.643556	0.998961
367	N	0.376017	0.626902	0.997394
368	C	0.417106	0.767041	0.997741
369	N	0.436007	0.802077	0.000245
370	C	0.420542	0.821915	0.001802
371	N	0.385145	0.805512	0.001158
372	C	0.365705	0.770414	0.998462
373	N	0.382302	0.752081	0.996696
374	C	0.424368	0.568577	0.334205
375	C	0.406721	0.532784	0.324659
376	C	0.424447	0.513869	0.322877
377	C	0.460723	0.531797	0.33176
378	N	0.475589	0.566326	0.007006
379	H	0.380778	0.520476	0.317967
380	N	0.458944	0.583524	0.008052
381	C	0.404585	0.476641	0.310363
382	H	0.377628	0.46795	0.302083
383	H	0.404602	0.460854	0.338385
384	H	0.416249	0.471975	0.280834
385	C	0.44082	0.858734	0.335073
386	C	0.476922	0.876905	0.327736
387	C	0.495923	0.913551	0.326149
388	C	0.477718	0.931908	0.332781
389	N	0.442923	0.912217	0.006084
390	H	0.48945	0.863279	0.322644
391	N	0.425681	0.878371	0.007057
392	C	0.53363	0.930884	0.316402
393	H	0.542664	0.912608	0.310167
394	H	0.548216	0.946873	0.345004
395	H	0.539538	0.947018	0.286405
396	C	0.320253	0.578822	0.996045
397	C	0.299881	0.569019	0.035527
398	C	0.268979	0.570733	0.037077
399	C	0.259043	0.581924	0.997838
400	N	0.280346	0.590796	0.294808
401	H	0.309405	0.564307	0.064403
402	N	0.308848	0.589486	0.29389
403	H	0.260159	0.555393	0.106804
404	H	0.250386	0.587774	0.09149
405	C	0.430274	0.744258	0.995419
406	C	0.440514	0.733887	0.034714
407	C	0.43876	0.70125	0.036293
408	C	0.42728	0.679985	0.997181
409	N	0.418217	0.692303	0.294243
410	H	0.445254	0.748118	0.063597
411	N	0.419468	0.722081	0.293369
412	C	0.445624	0.688578	0.079183
413	H	0.454612	0.708044	0.105835
414	H	0.465524	0.681601	0.073717
415	H	0.422087	0.665834	0.090944
416	C	0.26508	0.689102	0.995897
417	C	0.275658	0.709801	0.035085
418	C	0.308224	0.740784	0.036319
419	C	0.329232	0.750377	0.996999
420	N	0.316879	0.728823	0.294224
421	H	0.261459	0.700474	0.064026
422	N	0.287105	0.700262	0.293663
423	C	0.321082	0.760555	0.079013
424	H	0.301765	0.750142	0.105846
425	H	0.327927	0.787375	0.073356
426	H	0.343947	0.759932	0.090622
427	C	0.492156	0.968697	0.332518
428	N	0.471145	0.982679	0.332325
429	C	0.483019	0.517317	0.331931
430	N	0.257399	0.633311	0.330895
431	C	0.356239	0.592089	0.331525
432	N	0.372452	0.573243	0.333438
433	C	0.40777	0.588785	0.334761
434	N	0.426711	0.624185	0.334393
435	C	0.410958	0.643556	0.332294
436	N	0.376017	0.626902	0.330726
437	C	0.417106	0.767041	0.331073
438	N	0.436007	0.802077	0.333577
439	C	0.420542	0.821915	0.335134
440	N	0.385145	0.805512	0.334492
441	C	0.365705	0.770414	0.331795
442	N	0.382302	0.752081	0.330029
443	C	0.424368	0.568577	0.667539
444	C	0.406721	0.532784	0.657994
445	C	0.424447	0.513869	0.656211
446	C	0.460723	0.531797	0.665095
447	N	0.475589	0.566326	0.34034
448	H	0.380778	0.520476	0.651301
449	N	0.458944	0.583524	0.341384
450	C	0.404585	0.476641	0.643697
451	H	0.377628	0.46795	0.635417
452	H	0.404602	0.460854	0.671718
453	H	0.416249	0.471975	0.614167
454	C	0.44082	0.858734	0.668408
455	C	0.476922	0.876905	0.661071
456	C	0.495923	0.913551	0.659484
457	C	0.477718	0.931908	0.666113
458	N	0.442923	0.912217	0.33942
459	H	0.48945	0.863279	0.655979
460	N	0.425681	0.878371	0.34039
461	C	0.53363	0.930884	0.649737
462	H	0.542664	0.912608	0.643502
463	H	0.548216	0.946873	0.678337
464	H	0.539538	0.947018	0.619738
465	C	0.320253	0.578822	0.329379
466	C	0.299881	0.569019	0.368862
467	C	0.268979	0.570733	0.370409
468	C	0.259043	0.581924	0.33117
469	N	0.280346	0.590796	0.628144
470	H	0.309405	0.564307	0.397739
471	N	0.308848	0.589486	0.627224
472	H	0.260159	0.555393	0.440137
473	H	0.250386	0.587774	0.424826
474	C	0.430274	0.744258	0.328752
475	C	0.440514	0.733887	0.368047
476	C	0.43876	0.70125	0.369627
477	C	0.42728	0.679985	0.330512
478	N	0.418217	0.692303	0.627577
479	H	0.445254	0.748118	0.39693
480	N	0.419468	0.722081	0.626701
481	C	0.445624	0.688578	0.412517
482	H	0.454612	0.708044	0.439169
483	H	0.465524	0.681601	0.407051
484	H	0.422087	0.665834	0.424276
485	C	0.26508	0.689102	0.329231
486	C	0.275658	0.709801	0.368417
487	C	0.308224	0.740784	0.369651
488	C	0.329232	0.750377	0.330332
489	N	0.316879	0.728823	0.627557
490	H	0.261459	0.700474	0.397361
491	N	0.287105	0.700262	0.626998
492	C	0.321082	0.760555	0.412345
493	H	0.301765	0.750142	0.43918
494	H	0.327927	0.787375	0.40669
495	H	0.343947	0.759932	0.423956
496	C	0.492156	0.968697	0.66585
497	N	0.471145	0.982679	0.665658
498	C	0.483019	0.517317	0.665264
499	N	0.257399	0.633311	0.664229
500	C	0.356239	0.592089	0.664859
501	N	0.372452	0.573243	0.66677
502	C	0.40777	0.588785	0.668095
503	N	0.426711	0.624185	0.667727
504	C	0.410958	0.643556	0.665628
505	N	0.376017	0.626902	0.664061
506	C	0.417106	0.767041	0.664408
507	N	0.436007	0.802077	0.666912
508	C	0.420542	0.821915	0.668469
509	N	0.385145	0.805512	0.667825
510	C	0.365705	0.770414	0.665129
511	N	0.382302	0.752081	0.663363
512	C	0.424368	0.568577	0.000872
513	C	0.406721	0.532784	0.991327
514	C	0.424447	0.513869	0.989544
515	C	0.460723	0.531797	0.998428
516	N	0.475589	0.566326	0.673673
517	H	0.380778	0.520476	0.984634
518	N	0.458944	0.583524	0.674721
519	C	0.404585	0.476641	0.97703
520	H	0.377628	0.46795	0.96875
521	H	0.404602	0.460854	0.005051
522	H	0.416249	0.471975	0.9475
523	C	0.44082	0.858734	0.001741
524	C	0.476922	0.876905	0.994404
525	C	0.495923	0.913551	0.992817
526	C	0.477718	0.931908	0.999449
527	N	0.442923	0.912217	0.672753
528	H	0.48945	0.863279	0.989312
529	N	0.425681	0.878371	0.673723
530	C	0.53363	0.930884	0.98307
531	H	0.542664	0.912608	0.976835
532	H	0.548216	0.946873	0.011671
533	H	0.539538	0.947018	0.953075
534	C	0.320253	0.578822	0.662713
535	C	0.299881	0.569019	0.702195
536	C	0.268979	0.570733	0.703746
537	C	0.259043	0.581924	0.664502
538	N	0.280346	0.590796	0.961477
539	H	0.309405	0.564307	0.731072
540	N	0.308848	0.589486	0.960557
541	H	0.260159	0.555393	0.773473
542	H	0.250386	0.587774	0.758158
543	C	0.430274	0.744258	0.662086
544	C	0.440514	0.733887	0.701383
545	C	0.43876	0.70125	0.70296
546	C	0.42728	0.679985	0.663845
547	N	0.418217	0.692303	0.96091
548	H	0.445254	0.748118	0.730263
549	N	0.419468	0.722081	0.960037
550	C	0.445624	0.688578	0.74585
551	H	0.454612	0.708044	0.772502
552	H	0.465524	0.681601	0.740384
553	H	0.422087	0.665834	0.757612
554	C	0.26508	0.689102	0.662564
555	C	0.275658	0.709801	0.701754
556	C	0.308224	0.740784	0.702987
557	C	0.329232	0.750377	0.663666
558	N	0.316879	0.728823	0.96089
559	H	0.261459	0.700474	0.730694
560	N	0.287105	0.700262	0.960331
561	C	0.321082	0.760555	0.745682
562	H	0.301765	0.750142	0.772512
563	H	0.327927	0.787375	0.740023
564	H	0.343947	0.759932	0.757289
565	C	0.992155	0.468697	0.999183
566	N	0.971145	0.48268	0.998991
567	C	0.983019	0.017317	0.9986
568	N	0.518008	0.038333	0.998799
569	C	0.540778	0.026477	0.99893
570	N	0.526787	0.491492	0.999318
571	C	0.742397	0.153121	0.998273
572	N	0.707342	0.136953	0.000353
573	C	0.687521	0.101651	0.00191
574	N	0.703937	0.082677	0.00162
575	C	0.739055	0.098374	0.999342
576	N	0.757398	0.133309	0.997562
577	C	0.856238	0.092088	0.998192
578	N	0.872451	0.073242	0.000107
579	C	0.90777	0.088785	0.001428
580	N	0.92671	0.124185	0.00106
581	C	0.910958	0.143556	0.998961
582	N	0.876015	0.126901	0.997394
583	C	0.917105	0.267038	0.997741
584	N	0.936006	0.302077	0.000245
585	C	0.92054	0.321912	0.001802
586	N	0.885144	0.305512	0.001158
587	C	0.865706	0.270414	0.998462
588	N	0.882301	0.252081	0.996696
589	C	0.650712	0.085093	0.334827
590	C	0.632586	0.102823	0.32572
591	C	0.595941	0.085138	0.323956
592	C	0.577562	0.048789	0.332322
593	N	0.597208	0.03385	0.007176
594	H	0.646242	0.128822	0.319419
595	N	0.631056	0.05047	0.00825
596	C	0.57862	0.105159	0.312066
597	H	0.596917	0.132222	0.304366
598	H	0.562708	0.104768	0.340188
599	H	0.562404	0.093892	0.282343
600	C	0.924368	0.068578	0.334205
601	C	0.906721	0.032783	0.324657
602	C	0.924448	0.01387	0.322874
603	C	0.960724	0.031797	0.33176
604	N	0.975588	0.066325	0.007008
605	H	0.880777	0.020477	0.317962
606	N	0.958944	0.083523	0.008054
607	C	0.904587	0.976643	0.310357
608	H	0.87763	0.967952	0.302074
609	H	0.904601	0.960853	0.338378
610	H	0.916252	0.971977	0.280828
611	C	0.940818	0.358732	0.335073
612	C	0.976921	0.376905	0.327736
613	C	0.995923	0.413551	0.32615
614	C	0.977716	0.431908	0.332781
615	N	0.942922	0.412218	0.006083
616	H	0.98945	0.363279	0.322645
617	N	0.925681	0.378371	0.007056
618	C	0.820254	0.078822	0.996049
619	C	0.799881	0.06902	0.035529
620	C	0.768978	0.070732	0.037078
621	C	0.759043	0.081923	0.997838
622	N	0.780346	0.090795	0.29481
623	H	0.809404	0.064305	0.064405
624	N	0.808847	0.089484	0.293891
625	C	0.749575	0.064166	0.080033
626	H	0.760157	0.055393	0.106805
627	H	0.722681	0.04421	0.074798
628	H	0.750387	0.087774	0.091492
629	C	0.930273	0.244256	0.995419
630	C	0.940513	0.233885	0.034714
631	C	0.93876	0.201249	0.036294
632	C	0.927279	0.179985	0.997181
633	N	0.918217	0.192302	0.294243
634	H	0.945254	0.248117	0.063597
635	N	0.919467	0.22208	0.293369
636	C	0.945624	0.188578	0.079184
637	H	0.95461	0.208043	0.105834
638	H	0.965525	0.181601	0.073717
639	H	0.922086	0.165833	0.090945
640	C	0.765078	0.189101	0.995897
641	C	0.775659	0.209802	0.035085
642	C	0.808222	0.240784	0.036318
643	C	0.829232	0.250378	0.996999
644	N	0.816878	0.228822	0.294223
645	H	0.761458	0.200475	0.064026
646	N	0.787104	0.20026	0.293663
647	C	0.821083	0.260555	0.079012
648	H	0.801765	0.250142	0.105844
649	H	0.827927	0.287378	0.073355
650	H	0.843947	0.259932	0.090622
651	C	0.992155	0.468697	0.332517
652	N	0.971145	0.48268	0.332325
653	C	0.983019	0.017317	0.331931
654	N	0.518008	0.038333	0.332131
655	C	0.540778	0.026477	0.332265
656	N	0.526787	0.491492	0.332651
657	C	0.742397	0.153121	0.331606
658	N	0.707342	0.136953	0.333685
659	C	0.687521	0.101651	0.335244
660	N	0.703937	0.082677	0.334953
661	C	0.739055	0.098374	0.332672
662	N	0.757398	0.133309	0.330896
663	C	0.856238	0.092088	0.331526
664	N	0.872451	0.073242	0.333439
665	C	0.90777	0.088785	0.334762
666	N	0.92671	0.124185	0.334394
667	C	0.910958	0.143556	0.332295
668	N	0.876015	0.126901	0.330728
669	C	0.917105	0.267038	0.331072
670	N	0.936006	0.302077	0.333577
671	C	0.92054	0.321912	0.335133
672	N	0.885144	0.305512	0.334491
673	C	0.865706	0.270414	0.331794
674	N	0.882301	0.252081	0.330028
675	C	0.650712	0.085093	0.668162
676	C	0.632586	0.102823	0.659056
677	C	0.595941	0.085138	0.65729
678	C	0.577562	0.048789	0.665655
679	N	0.597208	0.03385	0.340508
680	H	0.646242	0.128822	0.652753
681	N	0.631056	0.05047	0.341583
682	C	0.57862	0.105159	0.645399
683	H	0.596917	0.132222	0.637702
684	H	0.562708	0.104768	0.673521
685	H	0.562404	0.093892	0.615677
686	C	0.924368	0.068578	0.667539
687	C	0.906721	0.032783	0.657991
688	C	0.924448	0.01387	0.656208
689	C	0.960724	0.031797	0.665095
690	N	0.975588	0.066325	0.340343
691	H	0.880777	0.020477	0.651297
692	N	0.958944	0.083523	0.341388
693	C	0.904587	0.976643	0.643691
694	H	0.87763	0.967952	0.635407
695	H	0.904601	0.960853	0.671711
696	H	0.916252	0.971977	0.61416
697	C	0.940818	0.358732	0.668405
698	C	0.976921	0.376905	0.661071
699	C	0.995923	0.413551	0.659484
700	C	0.977716	0.431908	0.666113
701	N	0.942922	0.412218	0.339416
702	H	0.98945	0.363279	0.655979
703	N	0.925681	0.378371	0.34039
704	C	0.820254	0.078822	0.329381
705	C	0.799881	0.06902	0.368862
706	C	0.768978	0.070732	0.370413
707	C	0.759043	0.081923	0.331171
708	N	0.780346	0.090795	0.628144
709	H	0.809404	0.064305	0.397739
710	N	0.808847	0.089484	0.627224
711	C	0.749575	0.064166	0.413367
712	H	0.760157	0.055393	0.44014
713	H	0.722681	0.04421	0.408133
714	H	0.750387	0.087774	0.424826
715	C	0.930273	0.244256	0.328752
716	C	0.940513	0.233885	0.368047
717	C	0.93876	0.201249	0.369627
718	C	0.927279	0.179985	0.330513
719	N	0.918217	0.192302	0.627577
720	H	0.945254	0.248117	0.39693
721	N	0.919467	0.22208	0.626701
722	C	0.945624	0.188578	0.412517
723	H	0.95461	0.208043	0.439169
724	H	0.965525	0.181601	0.407051
725	H	0.922086	0.165833	0.42428
726	C	0.765078	0.189101	0.329231
727	C	0.775659	0.209802	0.368417
728	C	0.808222	0.240784	0.369651
729	C	0.829232	0.250378	0.330331
730	N	0.816878	0.228822	0.627557
731	H	0.761458	0.200475	0.397358
732	N	0.787104	0.20026	0.626998
733	C	0.821083	0.260555	0.412345
734	H	0.801765	0.250142	0.43918
735	H	0.827927	0.287378	0.406687
736	H	0.843947	0.259932	0.423956
737	C	0.992155	0.468697	0.66585
738	N	0.971145	0.48268	0.665658
739	C	0.983019	0.017317	0.665264
740	N	0.518008	0.038333	0.665466
741	C	0.540778	0.026477	0.665597
742	N	0.526787	0.491492	0.665985
743	C	0.742397	0.153121	0.66494
744	N	0.707342	0.136953	0.66702
745	C	0.687521	0.101651	0.668577
746	N	0.703937	0.082677	0.668287
747	C	0.739055	0.098374	0.666005
748	N	0.757398	0.133309	0.664229
749	C	0.856238	0.092088	0.664859
750	N	0.872451	0.073242	0.666774
751	C	0.90777	0.088785	0.668095
752	N	0.92671	0.124185	0.667727
753	C	0.910958	0.143556	0.665628
754	N	0.876015	0.126901	0.664061
755	C	0.917105	0.267038	0.664408
756	N	0.936006	0.302077	0.666912
757	C	0.92054	0.321912	0.668466
758	N	0.885144	0.305512	0.667825
759	C	0.865706	0.270414	0.665129
760	N	0.882301	0.252081	0.663363
761	C	0.650712	0.085093	0.001495
762	C	0.632586	0.102823	0.992389
763	C	0.595941	0.085138	0.990623
764	C	0.577562	0.048789	0.998988
765	N	0.597208	0.03385	0.673845
766	H	0.646242	0.128822	0.986086
767	N	0.631056	0.05047	0.674916
768	C	0.57862	0.105159	0.978732
769	H	0.596917	0.132222	0.971035
770	H	0.562708	0.104768	0.006853
771	H	0.562404	0.093892	0.94901
772	C	0.924368	0.068578	0.000872
773	C	0.906721	0.032783	0.991324
774	C	0.924448	0.01387	0.989541
775	C	0.960724	0.031797	0.998428
776	N	0.975588	0.066325	0.673676
777	H	0.880777	0.020477	0.98463
778	N	0.958944	0.083523	0.674721
779	C	0.904587	0.976643	0.977024
780	H	0.87763	0.967952	0.968743
781	H	0.904601	0.960853	0.005044
782	H	0.916252	0.971977	0.947497
783	C	0.940818	0.358732	0.001741
784	C	0.976921	0.376905	0.994404
785	C	0.995923	0.413551	0.992817
786	C	0.977716	0.431908	0.999449
787	N	0.942922	0.412218	0.672753
788	H	0.98945	0.363279	0.989312
789	N	0.925681	0.378371	0.673723
790	C	0.820254	0.078822	0.662716
791	C	0.799881	0.06902	0.702195
792	C	0.768978	0.070732	0.703746
793	C	0.759043	0.081923	0.664505
794	N	0.780346	0.090795	0.961477
795	H	0.809404	0.064305	0.731072
796	N	0.808847	0.089484	0.96056
797	C	0.749575	0.064166	0.7467
798	H	0.760157	0.055393	0.773473
799	H	0.722681	0.04421	0.741466
800	H	0.750387	0.087774	0.758158
801	C	0.930273	0.244256	0.662086
802	C	0.940513	0.233885	0.701383
803	C	0.93876	0.201249	0.70296
804	C	0.927279	0.179985	0.663848
805	N	0.918217	0.192302	0.96091
806	H	0.945254	0.248117	0.730263
807	N	0.919467	0.22208	0.960037
808	C	0.945624	0.188578	0.74585
809	H	0.95461	0.208043	0.772502
810	H	0.965525	0.181601	0.740384
811	H	0.922086	0.165833	0.757612
812	C	0.765078	0.189101	0.662564
813	C	0.775659	0.209802	0.701754
814	C	0.808222	0.240784	0.702987
815	C	0.829232	0.250378	0.663666
816	N	0.816878	0.228822	0.96089
817	H	0.761458	0.200475	0.730694
818	N	0.787104	0.20026	0.960331
819	C	0.821083	0.260555	0.745678
820	H	0.801765	0.250142	0.772512
821	H	0.827927	0.287378	0.740023
822	H	0.843947	0.259932	0.757289
823	C	0.992155	0.968697	0.999187
824	N	0.971145	0.982679	0.998991
825	C	0.983017	0.517317	0.998597
826	N	0.518009	0.538334	0.998799
827	C	0.540778	0.526476	0.99893
828	N	0.526787	0.991492	0.999318
829	C	0.742397	0.65312	0.998273
830	N	0.707342	0.636953	0.000353
831	C	0.687521	0.601651	0.00191
832	N	0.703937	0.582676	0.00162
833	C	0.739056	0.598376	0.999338
834	N	0.757399	0.633311	0.997562
835	C	0.856238	0.592089	0.998192
836	N	0.872452	0.573243	0.000107
837	C	0.90777	0.588785	0.001428
838	N	0.926711	0.624185	0.00106
839	C	0.910956	0.643556	0.998961
840	N	0.876016	0.626902	0.997394
841	C	0.917106	0.767041	0.997741
842	N	0.936006	0.802077	0.000245
843	C	0.920541	0.821915	0.001802
844	N	0.885144	0.805512	0.001158
845	C	0.865705	0.770414	0.998462
846	N	0.882301	0.752081	0.996696
847	C	0.650712	0.585094	0.334826
848	C	0.632584	0.602825	0.325719
849	C	0.59594	0.585137	0.323955
850	C	0.577559	0.548788	0.33232
851	N	0.597208	0.533852	0.007174
852	H	0.64624	0.628823	0.319419
853	N	0.631055	0.550471	0.008249
854	C	0.57862	0.605159	0.312066
855	H	0.596915	0.632223	0.304366
856	H	0.562706	0.604769	0.340188
857	H	0.562402	0.593893	0.282342
858	C	0.924368	0.568577	0.334205
859	C	0.906721	0.532784	0.324659
860	C	0.924445	0.513869	0.322877
861	C	0.960724	0.531797	0.33176
862	N	0.975589	0.566326	0.007006
863	H	0.880777	0.520476	0.317967
864	N	0.958943	0.583524	0.008052
865	C	0.904586	0.476641	0.310363
866	H	0.877627	0.46795	0.302083
867	H	0.904601	0.460854	0.338385
868	H	0.916248	0.471975	0.280834
869	C	0.940819	0.858734	0.335073
870	C	0.976921	0.876905	0.327736
871	C	0.995923	0.913551	0.326149
872	C	0.977716	0.931908	0.332781
873	N	0.942922	0.912217	0.006084
874	H	0.989448	0.863279	0.322644
875	N	0.925681	0.878371	0.007057
876	C	0.820252	0.578822	0.996045
877	C	0.799881	0.569019	0.035527
878	C	0.768979	0.570733	0.037077
879	C	0.759044	0.581924	0.997838
880	N	0.780346	0.590796	0.294808
881	H	0.809404	0.564307	0.064403
882	N	0.808846	0.589486	0.29389
883	C	0.749575	0.564167	0.080032
884	H	0.760157	0.555393	0.106804
885	H	0.722681	0.54421	0.074797
886	H	0.750387	0.587774	0.09149
887	C	0.930274	0.744258	0.995419
888	C	0.940513	0.733887	0.034714
889	C	0.93876	0.70125	0.036293
890	C	0.92728	0.679985	0.997181
891	N	0.918217	0.692303	0.294243
892	H	0.945254	0.748118	0.063597
893	N	0.919467	0.722081	0.293369
894	C	0.945624	0.688578	0.079183
895	H	0.954611	0.708044	0.105835
896	H	0.965524	0.681601	0.073717
897	H	0.922086	0.665834	0.090944
898	C	0.765079	0.689102	0.995897
899	C	0.775656	0.709801	0.035085
900	C	0.808222	0.740784	0.036319
901	C	0.829232	0.750377	0.996999
902	N	0.816878	0.728823	0.294224
903	H	0.761458	0.700474	0.064026
904	N	0.787105	0.700262	0.293663
905	C	0.821083	0.760555	0.079013
906	H	0.801765	0.750142	0.105846
907	H	0.827925	0.787375	0.073356
908	H	0.843947	0.759932	0.090622
909	C	0.992155	0.968697	0.332518
910	N	0.971145	0.982679	0.332325
911	C	0.983017	0.517317	0.331931
912	N	0.518009	0.538334	0.33213
913	C	0.540778	0.526476	0.332264
914	N	0.526787	0.991492	0.332652
915	C	0.742397	0.65312	0.331605
916	N	0.707342	0.636953	0.333684
917	C	0.687521	0.601651	0.335243
918	N	0.703937	0.582676	0.334952
919	C	0.739056	0.598376	0.332671
920	N	0.757399	0.633311	0.330895
921	C	0.856238	0.592089	0.331525
922	N	0.872452	0.573243	0.333438
923	C	0.90777	0.588785	0.334761
924	N	0.926711	0.624185	0.334393
925	C	0.910956	0.643556	0.332294
926	N	0.876016	0.626902	0.330726
927	C	0.917106	0.767041	0.331073
928	N	0.936006	0.802077	0.333577
929	C	0.920541	0.821915	0.335134
930	N	0.885144	0.805512	0.334492
931	C	0.865705	0.770414	0.331795
932	N	0.882301	0.752081	0.330029
933	C	0.650712	0.585094	0.668159
934	C	0.632584	0.602825	0.659052
935	C	0.59594	0.585137	0.65729
936	C	0.577559	0.548788	0.665655
937	N	0.597208	0.533852	0.340508
938	H	0.64624	0.628823	0.652753
939	N	0.631055	0.550471	0.341583
940	C	0.57862	0.605159	0.645399
941	H	0.596915	0.632223	0.637702
942	H	0.562706	0.604769	0.673521
943	H	0.562402	0.593893	0.615677
944	C	0.924368	0.568577	0.667539
945	C	0.906721	0.532784	0.657994
946	C	0.924445	0.513869	0.656211
947	C	0.960724	0.531797	0.665095
948	N	0.975589	0.566326	0.34034
949	H	0.880777	0.520476	0.651301
950	N	0.958943	0.583524	0.341384
951	C	0.904586	0.476641	0.643697
952	H	0.877627	0.46795	0.635417
953	H	0.904601	0.460854	0.671718
954	H	0.916248	0.471975	0.614167
955	C	0.940819	0.858734	0.668408
956	C	0.976921	0.876905	0.661071
957	C	0.995923	0.913551	0.659484
958	C	0.977716	0.931908	0.666113
959	N	0.942922	0.912217	0.33942
960	H	0.989448	0.863279	0.655979
961	N	0.925681	0.878371	0.34039
962	C	0.820252	0.578822	0.329379
963	C	0.799881	0.569019	0.368862
964	C	0.768979	0.570733	0.370409
965	C	0.759044	0.581924	0.33117
966	N	0.780346	0.590796	0.628144
967	H	0.809404	0.564307	0.397739
968	N	0.808846	0.589486	0.627224
969	C	0.749575	0.564167	0.413367
970	H	0.760157	0.555393	0.440137
971	H	0.722681	0.54421	0.408129
972	H	0.750387	0.587774	0.424826
973	C	0.930274	0.744258	0.328752
974	C	0.940513	0.733887	0.368047
975	C	0.93876	0.70125	0.369627
976	C	0.92728	0.679985	0.330512
977	N	0.918217	0.692303	0.627577
978	H	0.945254	0.748118	0.39693
979	N	0.919467	0.722081	0.626701
980	C	0.945624	0.688578	0.412517
981	H	0.954611	0.708044	0.439169
982	H	0.965524	0.681601	0.407051
983	H	0.922086	0.665834	0.424276
984	C	0.765079	0.689102	0.329231
985	C	0.775656	0.709801	0.368417
986	C	0.808222	0.740784	0.369651
987	C	0.829232	0.750377	0.330332
988	N	0.816878	0.728823	0.627557
989	H	0.761458	0.700474	0.397361
990	N	0.787105	0.700262	0.626998
991	C	0.821083	0.760555	0.412345
992	H	0.801765	0.750142	0.43918
993	H	0.827925	0.787375	0.40669
994	H	0.843947	0.759932	0.423956
995	C	0.992155	0.968697	0.66585
996	N	0.971145	0.982679	0.665658
997	C	0.983017	0.517317	0.665264
998	N	0.518009	0.538334	0.665463
999	C	0.540778	0.526476	0.665597
1000	N	0.526787	0.991492	0.665985
1001	C	0.742397	0.65312	0.66494
1002	N	0.707342	0.636953	0.66702
1003	C	0.687521	0.601651	0.668577
1004	N	0.703937	0.582676	0.668287
1005	C	0.739056	0.598376	0.666005
1006	N	0.757399	0.633311	0.664229
1007	C	0.856238	0.592089	0.664859
1008	N	0.872452	0.573243	0.66677
1009	C	0.90777	0.588785	0.668095
1010	N	0.926711	0.624185	0.667727
1011	C	0.910956	0.643556	0.665628
1012	N	0.876016	0.626902	0.664061
1013	C	0.917106	0.767041	0.664408
1014	N	0.936006	0.802077	0.666912
1015	C	0.920541	0.821915	0.668469
1016	N	0.885144	0.805512	0.667825
1017	C	0.865705	0.770414	0.665129
1018	N	0.882301	0.752081	0.663363
1019	C	0.650712	0.585094	0.001495
1020	C	0.632584	0.602825	0.992389
1021	C	0.59594	0.585137	0.990623
1022	C	0.577559	0.548788	0.998988
1023	N	0.597208	0.533852	0.673841
1024	H	0.64624	0.628823	0.986086
1025	N	0.631055	0.550471	0.674916
1026	C	0.57862	0.605159	0.978732
1027	H	0.596915	0.632223	0.971035
1028	H	0.562706	0.604769	0.006853
1029	H	0.562402	0.593893	0.94901
1030	C	0.924368	0.568577	0.000872
1031	C	0.906721	0.532784	0.991327
1032	C	0.924445	0.513869	0.989544
1033	C	0.960724	0.531797	0.998428
1034	N	0.975589	0.566326	0.673673
1035	H	0.880777	0.520476	0.984634
1036	N	0.958943	0.583524	0.674721
1037	C	0.904586	0.476641	0.97703
1038	H	0.877627	0.46795	0.96875
1039	H	0.904601	0.460854	0.005051
1040	H	0.916248	0.471975	0.9475
1041	C	0.940819	0.858734	0.001741
1042	C	0.976921	0.876905	0.994404
1043	C	0.995923	0.913551	0.992817
1044	C	0.977716	0.931908	0.999449
1045	N	0.942922	0.912217	0.672753
1046	H	0.989448	0.863279	0.989312
1047	N	0.925681	0.878371	0.673723
1048	C	0.820252	0.578822	0.662713
1049	C	0.799881	0.569019	0.702195
1050	C	0.768979	0.570733	0.703746
1051	C	0.759044	0.581924	0.664502
1052	N	0.780346	0.590796	0.961477
1053	H	0.809404	0.564307	0.731072
1054	N	0.808846	0.589486	0.960557
1055	C	0.749575	0.564167	0.7467
1056	H	0.760157	0.555393	0.773473
1057	H	0.722681	0.54421	0.741466
1058	H	0.750387	0.587774	0.758158
1059	C	0.930274	0.744258	0.662086
1060	C	0.940513	0.733887	0.701383
1061	C	0.93876	0.70125	0.70296
1062	C	0.92728	0.679985	0.663845
1063	N	0.918217	0.692303	0.96091
1064	H	0.945254	0.748118	0.730263
1065	N	0.919467	0.722081	0.960037
1066	C	0.945624	0.688578	0.74585
1067	H	0.954611	0.708044	0.772502
1068	H	0.965524	0.681601	0.740384
1069	H	0.922086	0.665834	0.757612
1070	C	0.765079	0.689102	0.662564
1071	C	0.775656	0.709801	0.701754
1072	C	0.808222	0.740784	0.702987
1073	C	0.829232	0.750377	0.663666
1074	N	0.816878	0.728823	0.96089
1075	H	0.761458	0.700474	0.730694
1076	N	0.787105	0.700262	0.960331
1077	C	0.821083	0.760555	0.745682
1078	H	0.801765	0.750142	0.772512
1079	H	0.827925	0.787375	0.740023
1080	H	0.843947	0.759932	0.757289
