data_C432H360N216_2018-02-15_10:33:20
#******************************************
#
# CIF file created by Zeo++
# Zeo++ is an open source package to
# analyze microporous materials
#
#*******************************************

_cell_length_a		43.1412   
_cell_length_b		43.1412   
_cell_length_c		30.041   
_cell_angle_alpha		90   
_cell_angle_beta		90   
_cell_angle_gamma		120   

_symmetry_space_group_name_H-M		'P1'
_symmetry_Int_Tables_number		1
_symmetry_cell_setting		Monoclinic

loop_
_symmetry_equiv_pos_as_xyz
'+x,+y,+z'

loop_
_atom_site_label
_atom_site_type_symbol
_atom_site_fract_x
_atom_site_fract_y
_atom_site_fract_z
1	C	0.188394	0.36883	0.04116
2	N	0.201375	0.345927	0.04101
3	C	0.179073	0.309903	0.041174
4	N	0.143188	0.296922	0.040993
5	C	0.129465	0.319223	0.041149
6	N	0.152371	0.355108	0.040989
7	C	0.192533	0.284535	0.37252
8	H	0.179216	0.266628	0.344356
9	H	0.184509	0.268521	0.069651
10	C	0.090639	0.305765	0.039147
11	H	0.086057	0.319092	0.344319
12	H	0.082642	0.313782	0.069612
13	C	0.21376	0.407659	0.039189
14	H	0.231683	0.412255	0.344376
15	H	0.229759	0.415644	0.069666
16	C	0.306514	0.130588	0.957367
17	N	0.297385	0.156477	0.95761
18	C	0.32269	0.191765	0.95735
19	N	0.357707	0.200893	0.957603
20	C	0.367692	0.175591	0.95735
21	N	0.341803	0.140574	0.957607
22	C	0.313288	0.220225	0.293757
23	H	0.320981	0.235647	0.262811
24	H	0.329093	0.238047	0.987612
25	C	0.405555	0.184994	0.960413
26	H	0.41328	0.177302	0.262794
27	H	0.407579	0.169191	0.987596
28	C	0.278061	0.092722	0.96042
29	H	0.262646	0.085	0.262799
30	H	0.26023	0.090692	0.987602
31	C	0.244491	0.279182	0.019513
32	C	0.245455	0.253573	0.048045
33	C	0.255783	0.229302	0.03115
34	C	0.265408	0.230772	0.319282
35	C	0.265298	0.257044	0.291351
36	C	0.254978	0.280988	0.308029
37	N	0.256312	0.205036	0.059658
38	C	0.247533	0.203099	0.103346
39	C	0.237401	0.227149	0.120085
40	N	0.236692	0.251365	0.09191
41	H	0.24837	0.184482	0.123525
42	H	0.230637	0.226526	0.152786
43	H	0.254171	0.299184	0.286907
44	H	0.272028	0.258312	0.258484
45	N	0.274655	0.205731	0.303047
46	H	0.259409	0.192898	0.275559
47	N	0.231977	0.302385	0.033018
48	H	0.24526	0.316067	0.06121
49	C	0.21912	0.46497	0.019493
50	C	0.24473	0.491543	0.048025
51	C	0.269003	0.026142	0.031129
52	C	0.267531	0.034296	0.319261
53	C	0.241267	0.007912	0.291328
54	C	0.217333	0.473642	0.308001
55	N	0.293264	0.050937	0.059639
56	C	0.295198	0.044097	0.103328
57	C	0.271147	0.509917	0.120068
58	N	0.246933	0.484991	0.091891
59	H	0.313813	0.063553	0.123508
60	H	0.271766	0.503777	0.15277
61	H	0.199109	0.454654	0.28689
62	H	0.23998	0.013381	0.258467
63	N	0.292563	0.068589	0.303032
64	H	0.305401	0.066186	0.275541
65	N	0.195913	0.429254	0.033
66	H	0.182223	0.428855	0.061184
67	C	0.033327	0.253822	0.019455
68	C	0.006753	0.25284	0.048003
69	C	0.472148	0.242502	0.031121
70	C	0.463985	0.232881	0.319253
71	C	0.490368	0.23301	0.291308
72	C	0.024636	0.243325	0.307976
73	N	0.447353	0.241957	0.059643
74	C	0.4542	0.250727	0.103332
75	C	0.988387	0.26087	0.120058
76	N	0.013313	0.261595	0.091869
77	H	0.434746	0.249879	0.123521
78	H	0.994532	0.267629	0.152759
79	H	0.043634	0.244133	0.286845
80	H	0.484896	0.226261	0.258446
81	N	0.429693	0.223628	0.303031
82	H	0.432096	0.238873	0.275546
83	N	0.069042	0.266324	0.032958
84	H	0.069438	0.253031	0.061141
85	C	0.188394	0.36883	0.374494
86	N	0.201375	0.345927	0.374345
87	C	0.179073	0.309903	0.374508
88	N	0.143188	0.296922	0.374328
89	C	0.129465	0.319223	0.374481
90	N	0.152371	0.355108	0.374321
91	C	0.192533	0.284535	0.705854
92	H	0.179216	0.266628	0.67769
93	H	0.184509	0.268521	0.402985
94	C	0.090639	0.305765	0.37248
95	H	0.086057	0.319092	0.677653
96	H	0.082642	0.313782	0.402945
97	C	0.21376	0.407659	0.372524
98	H	0.231683	0.412255	0.67771
99	H	0.229759	0.415644	0.402999
100	C	0.306514	0.130588	0.290701
101	N	0.297385	0.156477	0.290944
102	C	0.32269	0.191765	0.290682
103	N	0.357707	0.200893	0.290934
104	C	0.367692	0.175591	0.290683
105	N	0.341803	0.140574	0.29094
106	C	0.313288	0.220225	0.627092
107	H	0.320981	0.235647	0.596145
108	H	0.329093	0.238047	0.320943
109	C	0.405555	0.184994	0.293744
110	H	0.41328	0.177302	0.596128
111	H	0.407579	0.169191	0.320927
112	C	0.278061	0.092722	0.293751
113	H	0.262646	0.085	0.596135
114	H	0.26023	0.090692	0.320934
115	C	0.244491	0.279182	0.352847
116	C	0.245455	0.253573	0.381378
117	C	0.255783	0.229302	0.364485
118	C	0.265408	0.230772	0.652614
119	C	0.265298	0.257044	0.624686
120	C	0.254978	0.280988	0.641363
121	N	0.256312	0.205036	0.392992
122	C	0.247533	0.203099	0.436679
123	C	0.237401	0.227149	0.45342
124	N	0.236692	0.251365	0.425245
125	H	0.24837	0.184482	0.456858
126	H	0.230637	0.226526	0.486118
127	H	0.254171	0.299184	0.620242
128	H	0.272028	0.258312	0.591817
129	N	0.274655	0.205731	0.636383
130	H	0.259409	0.192898	0.608894
131	N	0.231977	0.302385	0.366352
132	H	0.24526	0.316067	0.394544
133	C	0.21912	0.46497	0.352827
134	C	0.24473	0.491543	0.381358
135	C	0.269003	0.026142	0.364465
136	C	0.267531	0.034296	0.652594
137	C	0.241267	0.007912	0.624662
138	C	0.217333	0.473642	0.641336
139	N	0.293264	0.050937	0.392972
140	C	0.295198	0.044097	0.436663
141	C	0.271147	0.509917	0.453403
142	N	0.246933	0.484991	0.425225
143	H	0.313813	0.063553	0.456842
144	H	0.271766	0.503777	0.486105
145	H	0.199109	0.454654	0.620225
146	H	0.23998	0.013381	0.5918
147	N	0.292563	0.068589	0.636366
148	H	0.305401	0.066186	0.608874
149	N	0.195913	0.429254	0.366332
150	H	0.182223	0.428855	0.394517
151	C	0.033327	0.253822	0.352787
152	C	0.006753	0.25284	0.381335
153	C	0.472148	0.242502	0.364455
154	C	0.463985	0.232881	0.652587
155	C	0.490368	0.23301	0.624642
156	C	0.024636	0.243325	0.641309
157	N	0.447353	0.241957	0.392976
158	C	0.4542	0.250727	0.436666
159	C	0.988387	0.26087	0.453393
160	N	0.013313	0.261595	0.425202
161	H	0.434746	0.249879	0.456855
162	H	0.994532	0.267629	0.486092
163	H	0.043634	0.244133	0.620178
164	H	0.484896	0.226261	0.591781
165	N	0.429693	0.223628	0.636366
166	H	0.432096	0.238873	0.60888
167	N	0.069042	0.266324	0.366292
168	H	0.069438	0.253031	0.394474
169	C	0.188394	0.36883	0.707828
170	N	0.201375	0.345927	0.707679
171	C	0.179073	0.309903	0.707842
172	N	0.143188	0.296922	0.707662
173	C	0.129465	0.319223	0.707815
174	N	0.152371	0.355108	0.707655
175	C	0.192533	0.284535	0.039187
176	H	0.179216	0.266628	0.011023
177	H	0.184509	0.268521	0.736319
178	C	0.090639	0.305765	0.705815
179	H	0.086057	0.319092	0.010986
180	H	0.082642	0.313782	0.73628
181	C	0.21376	0.407659	0.705858
182	H	0.231683	0.412255	0.011041
183	H	0.229759	0.415644	0.736333
184	C	0.306514	0.130588	0.624036
185	N	0.297385	0.156477	0.624276
186	C	0.32269	0.191765	0.624016
187	N	0.357707	0.200893	0.624269
188	C	0.367692	0.175591	0.624016
189	N	0.341803	0.140574	0.624273
190	C	0.313288	0.220225	0.960426
191	H	0.320981	0.235647	0.929479
192	H	0.329093	0.238047	0.654278
193	C	0.405555	0.184994	0.627079
194	H	0.41328	0.177302	0.929462
195	H	0.407579	0.169191	0.654262
196	C	0.278061	0.092722	0.627086
197	H	0.262646	0.085	0.929465
198	H	0.26023	0.090692	0.654268
199	C	0.244491	0.279182	0.686181
200	C	0.245455	0.253573	0.714712
201	C	0.255783	0.229302	0.697819
202	C	0.265408	0.230772	0.985948
203	C	0.265298	0.257044	0.95802
204	C	0.254978	0.280988	0.974697
205	N	0.256312	0.205036	0.726326
206	C	0.247533	0.203099	0.770013
207	C	0.237401	0.227149	0.786754
208	N	0.236692	0.251365	0.758579
209	H	0.24837	0.184482	0.790192
210	H	0.230637	0.226526	0.819452
211	H	0.254171	0.299184	0.953576
212	H	0.272028	0.258312	0.925151
213	N	0.274655	0.205731	0.969714
214	H	0.259409	0.192898	0.942228
215	N	0.231977	0.302385	0.699686
216	H	0.24526	0.316067	0.727878
217	C	0.21912	0.46497	0.686161
218	C	0.24473	0.491543	0.714692
219	C	0.269003	0.026142	0.697796
220	C	0.267531	0.034296	0.985928
221	C	0.241267	0.007912	0.957996
222	C	0.217333	0.473642	0.974667
223	N	0.293264	0.050937	0.726307
224	C	0.295198	0.044097	0.769997
225	C	0.271147	0.509917	0.786734
226	N	0.246933	0.484991	0.758559
227	H	0.313813	0.063553	0.790176
228	H	0.271766	0.503777	0.819436
229	H	0.199109	0.454654	0.953559
230	H	0.23998	0.013381	0.925135
231	N	0.292563	0.068589	0.9697
232	H	0.305401	0.066186	0.942208
233	N	0.195913	0.429254	0.699666
234	H	0.182223	0.428855	0.727851
235	C	0.033327	0.253822	0.686121
236	C	0.006753	0.25284	0.714669
237	C	0.472148	0.242502	0.697789
238	C	0.463985	0.232881	0.985921
239	C	0.490368	0.23301	0.957976
240	C	0.024636	0.243325	0.974643
241	N	0.447353	0.241957	0.72631
242	C	0.4542	0.250727	0.77
243	C	0.988387	0.26087	0.786724
244	N	0.013313	0.261595	0.758536
245	H	0.434746	0.249879	0.790189
246	H	0.994532	0.267629	0.819426
247	H	0.043634	0.244133	0.953512
248	H	0.484896	0.226261	0.925115
249	N	0.429693	0.223628	0.9697
250	H	0.432096	0.238873	0.942215
251	N	0.069042	0.266324	0.699626
252	H	0.069438	0.253031	0.727808
253	C	0.188396	0.868831	0.04116
254	N	0.201375	0.845928	0.04101
255	C	0.179073	0.809904	0.041174
256	N	0.143188	0.796923	0.040993
257	C	0.129467	0.819224	0.041149
258	N	0.152372	0.855108	0.040989
259	C	0.192534	0.784536	0.37252
260	H	0.179217	0.766629	0.344356
261	H	0.184509	0.768522	0.069651
262	C	0.090639	0.805766	0.039147
263	H	0.086057	0.819093	0.344319
264	H	0.082642	0.813782	0.069612
265	C	0.21376	0.90766	0.039189
266	H	0.231684	0.912256	0.344376
267	H	0.229759	0.915644	0.069666
268	C	0.306512	0.630588	0.957367
269	N	0.297386	0.656478	0.95761
270	C	0.32269	0.691766	0.95735
271	N	0.357706	0.700893	0.957603
272	C	0.367694	0.675591	0.95735
273	N	0.341803	0.640574	0.957607
274	C	0.313288	0.720226	0.293757
275	H	0.320981	0.735648	0.262811
276	H	0.329093	0.738046	0.987612
277	C	0.405556	0.684994	0.960413
278	H	0.41328	0.677302	0.262794
279	H	0.407579	0.669192	0.987596
280	C	0.278061	0.592722	0.96042
281	H	0.262646	0.585	0.262799
282	H	0.26023	0.590691	0.987602
283	C	0.244492	0.779182	0.019513
284	C	0.245455	0.753573	0.048045
285	C	0.255784	0.729302	0.03115
286	C	0.265409	0.730774	0.319282
287	C	0.265298	0.757045	0.291351
288	C	0.254978	0.780989	0.308029
289	N	0.256312	0.705036	0.059658
290	C	0.247533	0.703098	0.103346
291	C	0.237402	0.72715	0.120085
292	N	0.236692	0.751365	0.09191
293	H	0.248371	0.684483	0.123525
294	H	0.230638	0.726526	0.152786
295	H	0.254171	0.799184	0.286907
296	H	0.272028	0.758313	0.258484
297	N	0.274656	0.705732	0.303047
298	H	0.259409	0.692898	0.275559
299	N	0.231977	0.802386	0.033018
300	H	0.24526	0.816068	0.06121
301	C	0.21912	0.964971	0.019493
302	C	0.244731	0.991544	0.048025
303	C	0.269003	0.526143	0.031129
304	C	0.26753	0.534296	0.319261
305	C	0.241268	0.507913	0.291328
306	C	0.217334	0.973643	0.308001
307	N	0.293264	0.550938	0.059639
308	C	0.295197	0.544097	0.103328
309	C	0.271147	0.009916	0.120068
310	N	0.246932	0.984991	0.091891
311	H	0.313813	0.563553	0.123508
312	H	0.271765	0.003777	0.15277
313	H	0.199107	0.954653	0.28689
314	H	0.239981	0.513381	0.258467
315	N	0.292564	0.56859	0.303032
316	H	0.305401	0.566187	0.275541
317	N	0.195914	0.929255	0.033
318	H	0.182222	0.928856	0.061184
319	C	0.033328	0.753822	0.019455
320	C	0.006752	0.75284	0.048003
321	C	0.472147	0.742503	0.031121
322	C	0.463986	0.732881	0.319253
323	C	0.49037	0.733012	0.291308
324	C	0.024637	0.743324	0.307976
325	N	0.447353	0.741957	0.059643
326	C	0.454199	0.750728	0.103332
327	C	0.988387	0.760869	0.120058
328	N	0.013313	0.761595	0.091869
329	H	0.434745	0.749879	0.123521
330	H	0.994532	0.767628	0.152759
331	H	0.043633	0.744133	0.286845
332	H	0.484895	0.726261	0.258446
333	N	0.429693	0.723628	0.303031
334	H	0.432096	0.738873	0.275546
335	N	0.069042	0.766324	0.032958
336	H	0.069439	0.753032	0.061141
337	C	0.188396	0.868831	0.374494
338	N	0.201375	0.845928	0.374345
339	C	0.179073	0.809904	0.374508
340	N	0.143188	0.796923	0.374328
341	C	0.129467	0.819224	0.374481
342	N	0.152372	0.855108	0.374321
343	C	0.192534	0.784536	0.705854
344	H	0.179217	0.766629	0.67769
345	H	0.184509	0.768522	0.402985
346	C	0.090639	0.805766	0.37248
347	H	0.086057	0.819093	0.677653
348	H	0.082642	0.813782	0.402945
349	C	0.21376	0.90766	0.372524
350	H	0.231684	0.912256	0.67771
351	H	0.229759	0.915644	0.402999
352	C	0.306512	0.630588	0.290701
353	N	0.297386	0.656478	0.290944
354	C	0.32269	0.691766	0.290682
355	N	0.357706	0.700893	0.290934
356	C	0.367694	0.675591	0.290683
357	N	0.341803	0.640574	0.29094
358	C	0.313288	0.720226	0.627092
359	H	0.320981	0.735648	0.596145
360	H	0.329093	0.738046	0.320943
361	C	0.405556	0.684994	0.293744
362	H	0.41328	0.677302	0.596128
363	H	0.407579	0.669192	0.320927
364	C	0.278061	0.592722	0.293751
365	H	0.262646	0.585	0.596135
366	H	0.26023	0.590691	0.320934
367	C	0.244492	0.779182	0.352847
368	C	0.245455	0.753573	0.381378
369	C	0.255784	0.729302	0.364485
370	C	0.265409	0.730774	0.652614
371	C	0.265298	0.757045	0.624686
372	C	0.254978	0.780989	0.641363
373	N	0.256312	0.705036	0.392992
374	C	0.247533	0.703098	0.436679
375	C	0.237402	0.72715	0.45342
376	N	0.236692	0.751365	0.425245
377	H	0.248371	0.684483	0.456858
378	H	0.230638	0.726526	0.486118
379	H	0.254171	0.799184	0.620242
380	H	0.272028	0.758313	0.591817
381	N	0.274656	0.705732	0.636383
382	H	0.259409	0.692898	0.608894
383	N	0.231977	0.802386	0.366352
384	H	0.24526	0.816068	0.394544
385	C	0.21912	0.964971	0.352827
386	C	0.244731	0.991544	0.381358
387	C	0.269003	0.526143	0.364465
388	C	0.26753	0.534296	0.652594
389	C	0.241268	0.507913	0.624662
390	C	0.217334	0.973643	0.641336
391	N	0.293264	0.550938	0.392972
392	C	0.295197	0.544097	0.436663
393	C	0.271147	0.009916	0.453403
394	N	0.246932	0.984991	0.425225
395	H	0.313813	0.563553	0.456842
396	H	0.271765	0.003777	0.486105
397	H	0.199107	0.954653	0.620225
398	H	0.239981	0.513381	0.5918
399	N	0.292564	0.56859	0.636366
400	H	0.305401	0.566187	0.608874
401	N	0.195914	0.929255	0.366332
402	H	0.182222	0.928856	0.394517
403	C	0.033328	0.753822	0.352787
404	C	0.006752	0.75284	0.381335
405	C	0.472147	0.742503	0.364455
406	C	0.463986	0.732881	0.652587
407	C	0.49037	0.733012	0.624642
408	C	0.024637	0.743324	0.641309
409	N	0.447353	0.741957	0.392976
410	C	0.454199	0.750728	0.436666
411	C	0.988387	0.760869	0.453393
412	N	0.013313	0.761595	0.425202
413	H	0.434745	0.749879	0.456855
414	H	0.994532	0.767628	0.486092
415	H	0.043633	0.744133	0.620178
416	H	0.484895	0.726261	0.591781
417	N	0.429693	0.723628	0.636366
418	H	0.432096	0.738873	0.60888
419	N	0.069042	0.766324	0.366292
420	H	0.069439	0.753032	0.394474
421	C	0.188396	0.868831	0.707828
422	N	0.201375	0.845928	0.707679
423	C	0.179073	0.809904	0.707842
424	N	0.143188	0.796923	0.707662
425	C	0.129467	0.819224	0.707815
426	N	0.152372	0.855108	0.707655
427	C	0.192534	0.784536	0.039187
428	H	0.179217	0.766629	0.011023
429	H	0.184509	0.768522	0.736319
430	C	0.090639	0.805766	0.705815
431	H	0.086057	0.819093	0.010986
432	H	0.082642	0.813782	0.73628
433	C	0.21376	0.90766	0.705858
434	H	0.231684	0.912256	0.011041
435	H	0.229759	0.915644	0.736333
436	C	0.306512	0.630588	0.624036
437	N	0.297386	0.656478	0.624276
438	C	0.32269	0.691766	0.624016
439	N	0.357706	0.700893	0.624269
440	C	0.367694	0.675591	0.624016
441	N	0.341803	0.640574	0.624273
442	C	0.313288	0.720226	0.960426
443	H	0.320981	0.735648	0.929479
444	H	0.329093	0.738046	0.654278
445	C	0.405556	0.684994	0.627079
446	H	0.41328	0.677302	0.929462
447	H	0.407579	0.669192	0.654262
448	C	0.278061	0.592722	0.627086
449	H	0.262646	0.585	0.929465
450	H	0.26023	0.590691	0.654268
451	C	0.244492	0.779182	0.686181
452	C	0.245455	0.753573	0.714712
453	C	0.255784	0.729302	0.697819
454	C	0.265409	0.730774	0.985948
455	C	0.265298	0.757045	0.95802
456	C	0.254978	0.780989	0.974697
457	N	0.256312	0.705036	0.726326
458	C	0.247533	0.703098	0.770013
459	C	0.237402	0.72715	0.786754
460	N	0.236692	0.751365	0.758579
461	H	0.248371	0.684483	0.790192
462	H	0.230638	0.726526	0.819452
463	H	0.254171	0.799184	0.953576
464	H	0.272028	0.758313	0.925151
465	N	0.274656	0.705732	0.969714
466	H	0.259409	0.692898	0.942228
467	N	0.231977	0.802386	0.699686
468	H	0.24526	0.816068	0.727878
469	C	0.21912	0.964971	0.686161
470	C	0.244731	0.991544	0.714692
471	C	0.269003	0.526143	0.697796
472	C	0.26753	0.534296	0.985928
473	C	0.241268	0.507913	0.957996
474	C	0.217334	0.973643	0.974667
475	N	0.293264	0.550938	0.726307
476	C	0.295197	0.544097	0.769997
477	C	0.271147	0.009916	0.786734
478	N	0.246932	0.984991	0.758559
479	H	0.313813	0.563553	0.790176
480	H	0.271765	0.003777	0.819436
481	H	0.199107	0.954653	0.953559
482	H	0.239981	0.513381	0.925135
483	N	0.292564	0.56859	0.9697
484	H	0.305401	0.566187	0.942208
485	N	0.195914	0.929255	0.699666
486	H	0.182222	0.928856	0.727851
487	C	0.033328	0.753822	0.686121
488	C	0.006752	0.75284	0.714669
489	C	0.472147	0.742503	0.697789
490	C	0.463986	0.732881	0.985921
491	C	0.49037	0.733012	0.957976
492	C	0.024637	0.743324	0.974643
493	N	0.447353	0.741957	0.72631
494	C	0.454199	0.750728	0.77
495	C	0.988387	0.760869	0.786724
496	N	0.013313	0.761595	0.758536
497	H	0.434745	0.749879	0.790189
498	H	0.994532	0.767628	0.819426
499	H	0.043633	0.744133	0.953512
500	H	0.484895	0.726261	0.925115
501	N	0.429693	0.723628	0.9697
502	H	0.432096	0.738873	0.942215
503	N	0.069042	0.766324	0.699626
504	H	0.069439	0.753032	0.727808
505	C	0.688395	0.36883	0.04116
506	N	0.701375	0.345927	0.04101
507	C	0.679072	0.309903	0.041174
508	N	0.643188	0.296922	0.040993
509	C	0.629466	0.319223	0.041149
510	N	0.652371	0.355108	0.040989
511	C	0.692533	0.284535	0.37252
512	H	0.679217	0.266628	0.344356
513	H	0.684509	0.268521	0.069651
514	C	0.590638	0.305765	0.039147
515	H	0.586057	0.319092	0.344319
516	H	0.582642	0.313782	0.069612
517	C	0.71376	0.407659	0.039189
518	H	0.731683	0.412255	0.344376
519	H	0.729759	0.415644	0.069666
520	C	0.806511	0.130588	0.957367
521	N	0.797384	0.156477	0.95761
522	C	0.822689	0.191765	0.95735
523	N	0.857707	0.200893	0.957603
524	C	0.867692	0.175591	0.95735
525	N	0.841803	0.140574	0.957607
526	C	0.813287	0.220225	0.293757
527	H	0.82098	0.235647	0.262811
528	H	0.829094	0.238047	0.987612
529	C	0.905555	0.184994	0.960413
530	H	0.91328	0.177302	0.262794
531	H	0.907579	0.169191	0.987596
532	C	0.778061	0.092722	0.96042
533	H	0.762645	0.085	0.262799
534	H	0.760231	0.090692	0.987602
535	C	0.744491	0.279182	0.019513
536	C	0.745455	0.253573	0.048045
537	C	0.755783	0.229302	0.03115
538	C	0.765408	0.230772	0.319282
539	C	0.765298	0.257044	0.291351
540	C	0.754976	0.280988	0.308029
541	N	0.756311	0.205036	0.059658
542	C	0.747533	0.203099	0.103346
543	C	0.737401	0.227149	0.120085
544	N	0.736693	0.251365	0.09191
545	H	0.74837	0.184482	0.123525
546	H	0.730638	0.226526	0.152786
547	H	0.754172	0.299184	0.286907
548	H	0.772027	0.258312	0.258484
549	N	0.774655	0.205731	0.303047
550	H	0.759409	0.192898	0.275559
551	N	0.731976	0.302385	0.033018
552	H	0.745259	0.316067	0.06121
553	C	0.71912	0.46497	0.019493
554	C	0.744731	0.491543	0.048025
555	C	0.769003	0.026142	0.031129
556	C	0.767531	0.034296	0.319261
557	C	0.741267	0.007912	0.291328
558	C	0.717334	0.473642	0.308001
559	N	0.793264	0.050937	0.059639
560	C	0.795198	0.044097	0.103328
561	C	0.771147	0.509917	0.120068
562	N	0.746932	0.484991	0.091891
563	H	0.813813	0.063553	0.123508
564	H	0.771765	0.503777	0.15277
565	H	0.699108	0.454654	0.28689
566	H	0.73998	0.013381	0.258467
567	N	0.792563	0.068589	0.303032
568	H	0.805401	0.066186	0.275541
569	N	0.695914	0.429254	0.033
570	H	0.682222	0.428855	0.061184
571	C	0.533327	0.253822	0.019455
572	C	0.506752	0.25284	0.048003
573	C	0.972148	0.242502	0.031121
574	C	0.963985	0.232881	0.319253
575	C	0.990368	0.23301	0.291308
576	C	0.524634	0.243325	0.307976
577	N	0.947353	0.241957	0.059643
578	C	0.954198	0.250727	0.103332
579	C	0.488387	0.26087	0.120058
580	N	0.513314	0.261595	0.091869
581	H	0.934746	0.249879	0.123521
582	H	0.494532	0.267629	0.152759
583	H	0.543634	0.244133	0.286845
584	H	0.984894	0.226261	0.258446
585	N	0.929693	0.223628	0.303031
586	H	0.932096	0.238873	0.275546
587	N	0.569042	0.266324	0.032958
588	H	0.569438	0.253031	0.061141
589	C	0.688395	0.36883	0.374494
590	N	0.701375	0.345927	0.374345
591	C	0.679072	0.309903	0.374508
592	N	0.643188	0.296922	0.374328
593	C	0.629466	0.319223	0.374481
594	N	0.652371	0.355108	0.374321
595	C	0.692533	0.284535	0.705854
596	H	0.679217	0.266628	0.67769
597	H	0.684509	0.268521	0.402985
598	C	0.590638	0.305765	0.37248
599	H	0.586057	0.319092	0.677653
600	H	0.582642	0.313782	0.402945
601	C	0.71376	0.407659	0.372524
602	H	0.731683	0.412255	0.67771
603	H	0.729759	0.415644	0.402999
604	C	0.806511	0.130588	0.290701
605	N	0.797384	0.156477	0.290944
606	C	0.822689	0.191765	0.290682
607	N	0.857707	0.200893	0.290934
608	C	0.867692	0.175591	0.290683
609	N	0.841803	0.140574	0.29094
610	C	0.813287	0.220225	0.627092
611	H	0.82098	0.235647	0.596145
612	H	0.829094	0.238047	0.320943
613	C	0.905555	0.184994	0.293744
614	H	0.91328	0.177302	0.596128
615	H	0.907579	0.169191	0.320927
616	C	0.778061	0.092722	0.293751
617	H	0.762645	0.085	0.596135
618	H	0.760231	0.090692	0.320934
619	C	0.744491	0.279182	0.352847
620	C	0.745455	0.253573	0.381378
621	C	0.755783	0.229302	0.364485
622	C	0.765408	0.230772	0.652614
623	C	0.765298	0.257044	0.624686
624	C	0.754976	0.280988	0.641363
625	N	0.756311	0.205036	0.392992
626	C	0.747533	0.203099	0.436679
627	C	0.737401	0.227149	0.45342
628	N	0.736693	0.251365	0.425245
629	H	0.74837	0.184482	0.456858
630	H	0.730638	0.226526	0.486118
631	H	0.754172	0.299184	0.620242
632	H	0.772027	0.258312	0.591817
633	N	0.774655	0.205731	0.636383
634	H	0.759409	0.192898	0.608894
635	N	0.731976	0.302385	0.366352
636	H	0.745259	0.316067	0.394544
637	C	0.71912	0.46497	0.352827
638	C	0.744731	0.491543	0.381358
639	C	0.769003	0.026142	0.364465
640	C	0.767531	0.034296	0.652594
641	C	0.741267	0.007912	0.624662
642	C	0.717334	0.473642	0.641336
643	N	0.793264	0.050937	0.392972
644	C	0.795198	0.044097	0.436663
645	C	0.771147	0.509917	0.453403
646	N	0.746932	0.484991	0.425225
647	H	0.813813	0.063553	0.456842
648	H	0.771765	0.503777	0.486105
649	H	0.699108	0.454654	0.620225
650	H	0.73998	0.013381	0.5918
651	N	0.792563	0.068589	0.636366
652	H	0.805401	0.066186	0.608874
653	N	0.695914	0.429254	0.366332
654	H	0.682222	0.428855	0.394517
655	C	0.533327	0.253822	0.352787
656	C	0.506752	0.25284	0.381335
657	C	0.972148	0.242502	0.364455
658	C	0.963985	0.232881	0.652587
659	C	0.990368	0.23301	0.624642
660	C	0.524634	0.243325	0.641309
661	N	0.947353	0.241957	0.392976
662	C	0.954198	0.250727	0.436666
663	C	0.488387	0.26087	0.453393
664	N	0.513314	0.261595	0.425202
665	H	0.934746	0.249879	0.456855
666	H	0.494532	0.267629	0.486092
667	H	0.543634	0.244133	0.620178
668	H	0.984894	0.226261	0.591781
669	N	0.929693	0.223628	0.636366
670	H	0.932096	0.238873	0.60888
671	N	0.569042	0.266324	0.366292
672	H	0.569438	0.253031	0.394474
673	C	0.688395	0.36883	0.707828
674	N	0.701375	0.345927	0.707679
675	C	0.679072	0.309903	0.707842
676	N	0.643188	0.296922	0.707662
677	C	0.629466	0.319223	0.707815
678	N	0.652371	0.355108	0.707655
679	C	0.692533	0.284535	0.039187
680	H	0.679217	0.266628	0.011023
681	H	0.684509	0.268521	0.736319
682	C	0.590638	0.305765	0.705815
683	H	0.586057	0.319092	0.010986
684	H	0.582642	0.313782	0.73628
685	C	0.71376	0.407659	0.705858
686	H	0.731683	0.412255	0.011041
687	H	0.729759	0.415644	0.736333
688	C	0.806511	0.130588	0.624036
689	N	0.797384	0.156477	0.624276
690	C	0.822689	0.191765	0.624016
691	N	0.857707	0.200893	0.624269
692	C	0.867692	0.175591	0.624016
693	N	0.841803	0.140574	0.624273
694	C	0.813287	0.220225	0.960426
695	H	0.82098	0.235647	0.929479
696	H	0.829094	0.238047	0.654278
697	C	0.905555	0.184994	0.627079
698	H	0.91328	0.177302	0.929462
699	H	0.907579	0.169191	0.654262
700	C	0.778061	0.092722	0.627086
701	H	0.762645	0.085	0.929465
702	H	0.760231	0.090692	0.654268
703	C	0.744491	0.279182	0.686181
704	C	0.745455	0.253573	0.714712
705	C	0.755783	0.229302	0.697819
706	C	0.765408	0.230772	0.985948
707	C	0.765298	0.257044	0.95802
708	C	0.754976	0.280988	0.974697
709	N	0.756311	0.205036	0.726326
710	C	0.747533	0.203099	0.770013
711	C	0.737401	0.227149	0.786754
712	N	0.736693	0.251365	0.758579
713	H	0.74837	0.184482	0.790192
714	H	0.730638	0.226526	0.819452
715	H	0.754172	0.299184	0.953576
716	H	0.772027	0.258312	0.925151
717	N	0.774655	0.205731	0.969714
718	H	0.759409	0.192898	0.942228
719	N	0.731976	0.302385	0.699686
720	H	0.745259	0.316067	0.727878
721	C	0.71912	0.46497	0.686161
722	C	0.744731	0.491543	0.714692
723	C	0.769003	0.026142	0.697796
724	C	0.767531	0.034296	0.985928
725	C	0.741267	0.007912	0.957996
726	C	0.717334	0.473642	0.974667
727	N	0.793264	0.050937	0.726307
728	C	0.795198	0.044097	0.769997
729	C	0.771147	0.509917	0.786734
730	N	0.746932	0.484991	0.758559
731	H	0.813813	0.063553	0.790176
732	H	0.771765	0.503777	0.819436
733	H	0.699108	0.454654	0.953559
734	H	0.73998	0.013381	0.925135
735	N	0.792563	0.068589	0.9697
736	H	0.805401	0.066186	0.942208
737	N	0.695914	0.429254	0.699666
738	H	0.682222	0.428855	0.727851
739	C	0.533327	0.253822	0.686121
740	C	0.506752	0.25284	0.714669
741	C	0.972148	0.242502	0.697789
742	C	0.963985	0.232881	0.985921
743	C	0.990368	0.23301	0.957976
744	C	0.524634	0.243325	0.974643
745	N	0.947353	0.241957	0.72631
746	C	0.954198	0.250727	0.77
747	C	0.488387	0.26087	0.786724
748	N	0.513314	0.261595	0.758536
749	H	0.934746	0.249879	0.790189
750	H	0.494532	0.267629	0.819426
751	H	0.543634	0.244133	0.953512
752	H	0.984894	0.226261	0.925115
753	N	0.929693	0.223628	0.9697
754	H	0.932096	0.238873	0.942215
755	N	0.569042	0.266324	0.699626
756	H	0.569438	0.253031	0.727808
757	C	0.688396	0.868831	0.04116
758	N	0.701375	0.845928	0.04101
759	C	0.679073	0.809904	0.041174
760	N	0.643188	0.796923	0.040993
761	C	0.629466	0.819224	0.041149
762	N	0.652371	0.855108	0.040989
763	C	0.692533	0.784536	0.37252
764	H	0.679217	0.766629	0.344356
765	H	0.68451	0.768522	0.069651
766	C	0.590639	0.805766	0.039147
767	H	0.586058	0.819093	0.344319
768	H	0.582642	0.813782	0.069612
769	C	0.71376	0.90766	0.039189
770	H	0.731684	0.912256	0.344376
771	H	0.729759	0.915644	0.069666
772	C	0.806511	0.630588	0.957367
773	N	0.797385	0.656478	0.95761
774	C	0.822689	0.691766	0.95735
775	N	0.857706	0.700893	0.957603
776	C	0.867693	0.675591	0.95735
777	N	0.841802	0.640574	0.957607
778	C	0.813288	0.720226	0.293757
779	H	0.82098	0.735648	0.262811
780	H	0.829094	0.738046	0.987612
781	C	0.905555	0.684994	0.960413
782	H	0.91328	0.677302	0.262794
783	H	0.907579	0.669192	0.987596
784	C	0.778061	0.592722	0.96042
785	H	0.762647	0.585	0.262799
786	H	0.76023	0.590691	0.987602
787	C	0.744491	0.779182	0.019513
788	C	0.745455	0.753573	0.048045
789	C	0.755783	0.729302	0.03115
790	C	0.765408	0.730774	0.319282
791	C	0.765299	0.757045	0.291351
792	C	0.754977	0.780989	0.308029
793	N	0.756311	0.705036	0.059658
794	C	0.747533	0.703098	0.103346
795	C	0.737401	0.72715	0.120085
796	N	0.736692	0.751365	0.09191
797	H	0.748371	0.684483	0.123525
798	H	0.730638	0.726526	0.152786
799	H	0.754172	0.799184	0.286907
800	H	0.772029	0.758313	0.258484
801	N	0.774655	0.705732	0.303047
802	H	0.759409	0.692898	0.275559
803	N	0.731976	0.802386	0.033018
804	H	0.745259	0.816068	0.06121
805	C	0.71912	0.964971	0.019493
806	C	0.744731	0.991544	0.048025
807	C	0.769003	0.526143	0.031129
808	C	0.76753	0.534296	0.319261
809	C	0.741268	0.507913	0.291328
810	C	0.717334	0.973643	0.308001
811	N	0.793264	0.550938	0.059639
812	C	0.795198	0.544097	0.103328
813	C	0.771147	0.009916	0.120068
814	N	0.746932	0.984991	0.091891
815	H	0.813813	0.563553	0.123508
816	H	0.771765	0.003777	0.15277
817	H	0.699108	0.954653	0.28689
818	H	0.73998	0.513381	0.258467
819	N	0.792563	0.56859	0.303032
820	H	0.805402	0.566187	0.275541
821	N	0.695914	0.929255	0.033
822	H	0.682223	0.928856	0.061184
823	C	0.533326	0.753822	0.019455
824	C	0.506753	0.75284	0.048003
825	C	0.972148	0.742503	0.031121
826	C	0.963985	0.732881	0.319253
827	C	0.990369	0.733012	0.291308
828	C	0.524636	0.743324	0.307976
829	N	0.947353	0.741957	0.059643
830	C	0.9542	0.750728	0.103332
831	C	0.488387	0.760869	0.120058
832	N	0.513313	0.761595	0.091869
833	H	0.934746	0.749879	0.123521
834	H	0.494532	0.767628	0.152759
835	H	0.543633	0.744133	0.286845
836	H	0.984896	0.726261	0.258446
837	N	0.929693	0.723628	0.303031
838	H	0.932096	0.738873	0.275546
839	N	0.569042	0.766324	0.032958
840	H	0.569439	0.753032	0.061141
841	C	0.688396	0.868831	0.374494
842	N	0.701375	0.845928	0.374345
843	C	0.679073	0.809904	0.374508
844	N	0.643188	0.796923	0.374328
845	C	0.629466	0.819224	0.374481
846	N	0.652371	0.855108	0.374321
847	C	0.692533	0.784536	0.705854
848	H	0.679217	0.766629	0.67769
849	H	0.68451	0.768522	0.402985
850	C	0.590639	0.805766	0.37248
851	H	0.586058	0.819093	0.677653
852	H	0.582642	0.813782	0.402945
853	C	0.71376	0.90766	0.372524
854	H	0.731684	0.912256	0.67771
855	H	0.729759	0.915644	0.402999
856	C	0.806511	0.630588	0.290701
857	N	0.797385	0.656478	0.290944
858	C	0.822689	0.691766	0.290682
859	N	0.857706	0.700893	0.290934
860	C	0.867693	0.675591	0.290683
861	N	0.841802	0.640574	0.29094
862	C	0.813288	0.720226	0.627092
863	H	0.82098	0.735648	0.596145
864	H	0.829094	0.738046	0.320943
865	C	0.905555	0.684994	0.293744
866	H	0.91328	0.677302	0.596128
867	H	0.907579	0.669192	0.320927
868	C	0.778061	0.592722	0.293751
869	H	0.762647	0.585	0.596135
870	H	0.76023	0.590691	0.320934
871	C	0.744491	0.779182	0.352847
872	C	0.745455	0.753573	0.381378
873	C	0.755783	0.729302	0.364485
874	C	0.765408	0.730774	0.652614
875	C	0.765299	0.757045	0.624686
876	C	0.754977	0.780989	0.641363
877	N	0.756311	0.705036	0.392992
878	C	0.747533	0.703098	0.436679
879	C	0.737401	0.72715	0.45342
880	N	0.736692	0.751365	0.425245
881	H	0.748371	0.684483	0.456858
882	H	0.730638	0.726526	0.486118
883	H	0.754172	0.799184	0.620242
884	H	0.772029	0.758313	0.591817
885	N	0.774655	0.705732	0.636383
886	H	0.759409	0.692898	0.608894
887	N	0.731976	0.802386	0.366352
888	H	0.745259	0.816068	0.394544
889	C	0.71912	0.964971	0.352827
890	C	0.744731	0.991544	0.381358
891	C	0.769003	0.526143	0.364465
892	C	0.76753	0.534296	0.652594
893	C	0.741268	0.507913	0.624662
894	C	0.717334	0.973643	0.641336
895	N	0.793264	0.550938	0.392972
896	C	0.795198	0.544097	0.436663
897	C	0.771147	0.009916	0.453403
898	N	0.746932	0.984991	0.425225
899	H	0.813813	0.563553	0.456842
900	H	0.771765	0.003777	0.486105
901	H	0.699108	0.954653	0.620225
902	H	0.73998	0.513381	0.5918
903	N	0.792563	0.56859	0.636366
904	H	0.805402	0.566187	0.608874
905	N	0.695914	0.929255	0.366332
906	H	0.682223	0.928856	0.394517
907	C	0.533326	0.753822	0.352787
908	C	0.506753	0.75284	0.381335
909	C	0.972148	0.742503	0.364455
910	C	0.963985	0.732881	0.652587
911	C	0.990369	0.733012	0.624642
912	C	0.524636	0.743324	0.641309
913	N	0.947353	0.741957	0.392976
914	C	0.9542	0.750728	0.436666
915	C	0.488387	0.760869	0.453393
916	N	0.513313	0.761595	0.425202
917	H	0.934746	0.749879	0.456855
918	H	0.494532	0.767628	0.486092
919	H	0.543633	0.744133	0.620178
920	H	0.984896	0.726261	0.591781
921	N	0.929693	0.723628	0.636366
922	H	0.932096	0.738873	0.60888
923	N	0.569042	0.766324	0.366292
924	H	0.569439	0.753032	0.394474
925	C	0.688396	0.868831	0.707828
926	N	0.701375	0.845928	0.707679
927	C	0.679073	0.809904	0.707842
928	N	0.643188	0.796923	0.707662
929	C	0.629466	0.819224	0.707815
930	N	0.652371	0.855108	0.707655
931	C	0.692533	0.784536	0.039187
932	H	0.679217	0.766629	0.011023
933	H	0.68451	0.768522	0.736319
934	C	0.590639	0.805766	0.705815
935	H	0.586058	0.819093	0.010986
936	H	0.582642	0.813782	0.73628
937	C	0.71376	0.90766	0.705858
938	H	0.731684	0.912256	0.011041
939	H	0.729759	0.915644	0.736333
940	C	0.806511	0.630588	0.624036
941	N	0.797385	0.656478	0.624276
942	C	0.822689	0.691766	0.624016
943	N	0.857706	0.700893	0.624269
944	C	0.867693	0.675591	0.624016
945	N	0.841802	0.640574	0.624273
946	C	0.813288	0.720226	0.960426
947	H	0.82098	0.735648	0.929479
948	H	0.829094	0.738046	0.654278
949	C	0.905555	0.684994	0.627079
950	H	0.91328	0.677302	0.929462
951	H	0.907579	0.669192	0.654262
952	C	0.778061	0.592722	0.627086
953	H	0.762647	0.585	0.929465
954	H	0.76023	0.590691	0.654268
955	C	0.744491	0.779182	0.686181
956	C	0.745455	0.753573	0.714712
957	C	0.755783	0.729302	0.697819
958	C	0.765408	0.730774	0.985948
959	C	0.765299	0.757045	0.95802
960	C	0.754977	0.780989	0.974697
961	N	0.756311	0.705036	0.726326
962	C	0.747533	0.703098	0.770013
963	C	0.737401	0.72715	0.786754
964	N	0.736692	0.751365	0.758579
965	H	0.748371	0.684483	0.790192
966	H	0.730638	0.726526	0.819452
967	H	0.754172	0.799184	0.953576
968	H	0.772029	0.758313	0.925151
969	N	0.774655	0.705732	0.969714
970	H	0.759409	0.692898	0.942228
971	N	0.731976	0.802386	0.699686
972	H	0.745259	0.816068	0.727878
973	C	0.71912	0.964971	0.686161
974	C	0.744731	0.991544	0.714692
975	C	0.769003	0.526143	0.697796
976	C	0.76753	0.534296	0.985928
977	C	0.741268	0.507913	0.957996
978	C	0.717334	0.973643	0.974667
979	N	0.793264	0.550938	0.726307
980	C	0.795198	0.544097	0.769997
981	C	0.771147	0.009916	0.786734
982	N	0.746932	0.984991	0.758559
983	H	0.813813	0.563553	0.790176
984	H	0.771765	0.003777	0.819436
985	H	0.699108	0.954653	0.953559
986	H	0.73998	0.513381	0.925135
987	N	0.792563	0.56859	0.9697
988	H	0.805402	0.566187	0.942208
989	N	0.695914	0.929255	0.699666
990	H	0.682223	0.928856	0.727851
991	C	0.533326	0.753822	0.686121
992	C	0.506753	0.75284	0.714669
993	C	0.972148	0.742503	0.697789
994	C	0.963985	0.732881	0.985921
995	C	0.990369	0.733012	0.957976
996	C	0.524636	0.743324	0.974643
997	N	0.947353	0.741957	0.72631
998	C	0.9542	0.750728	0.77
999	C	0.488387	0.760869	0.786724
1000	N	0.513313	0.761595	0.758536
1001	H	0.934746	0.749879	0.790189
1002	H	0.494532	0.767628	0.819426
1003	H	0.543633	0.744133	0.953512
1004	H	0.984896	0.726261	0.925115
1005	N	0.929693	0.723628	0.9697
1006	H	0.932096	0.738873	0.942215
1007	N	0.569042	0.766324	0.699626
1008	H	0.569439	0.753032	0.727808
