data_C504H216N144_2018-02-15_10:37:09
#******************************************
#
# CIF file created by Zeo++
# Zeo++ is an open source package to
# analyze microporous materials
#
#*******************************************

_cell_length_a		43.6085   
_cell_length_b		43.6085   
_cell_length_c		29.7808   
_cell_angle_alpha		90   
_cell_angle_beta		90   
_cell_angle_gamma		120   

_symmetry_space_group_name_H-M		'P1'
_symmetry_Int_Tables_number		1
_symmetry_cell_setting		Monoclinic

loop_
_symmetry_equiv_pos_as_xyz
'+x,+y,+z'

loop_
_atom_site_label
_atom_site_type_symbol
_atom_site_fract_x
_atom_site_fract_y
_atom_site_fract_z
1	C	0.024254	0.263047	0.005044
2	C	0.078874	0.290359	0.297522
3	C	0.08048	0.291161	0.045479
4	N	0.04294	0.27239	0.299295
5	C	0.043053	0.272448	0.04644
6	C	0.024062	0.262951	0.08726
7	H	0.037167	0.269504	0.117344
8	H	0.091028	0.296436	0.266843
9	C	0.024254	0.263047	0.338379
10	C	0.078874	0.290359	0.630856
11	C	0.08048	0.291161	0.378814
12	N	0.04294	0.27239	0.632629
13	C	0.043053	0.272448	0.379775
14	C	0.024062	0.262951	0.420593
15	H	0.037167	0.269504	0.450679
16	H	0.091028	0.296436	0.600178
17	C	0.024254	0.263047	0.671711
18	C	0.078874	0.290359	0.964191
19	C	0.08048	0.291161	0.712146
20	N	0.04294	0.27239	0.965964
21	C	0.043053	0.272448	0.713106
22	C	0.024062	0.262951	0.753928
23	H	0.037167	0.269504	0.784011
24	H	0.091028	0.296436	0.93351
25	C	0.024255	0.763048	0.005044
26	C	0.078875	0.790358	0.297522
27	C	0.080481	0.791163	0.045479
28	N	0.042941	0.772392	0.299295
29	C	0.043053	0.772448	0.04644
30	C	0.024063	0.762953	0.08726
31	H	0.037167	0.769503	0.117344
32	H	0.09103	0.796438	0.266843
33	C	0.024255	0.763048	0.338379
34	C	0.078875	0.790358	0.630856
35	C	0.080481	0.791163	0.378814
36	N	0.042941	0.772392	0.632629
37	C	0.043053	0.772448	0.379775
38	C	0.024063	0.762953	0.420593
39	H	0.037167	0.769503	0.450679
40	H	0.09103	0.796438	0.600178
41	C	0.024255	0.763048	0.671711
42	C	0.078875	0.790358	0.964191
43	C	0.080481	0.791163	0.712146
44	N	0.042941	0.772392	0.965964
45	C	0.043053	0.772448	0.713106
46	C	0.024063	0.762953	0.753928
47	H	0.037167	0.769503	0.784011
48	H	0.09103	0.796438	0.93351
49	C	0.136087	0.318964	0.003115
50	C	0.09885	0.300346	0.004205
51	H	0.09445	0.298146	0.074983
52	C	0.136087	0.318964	0.336448
53	C	0.09885	0.300346	0.337539
54	H	0.09445	0.298146	0.408316
55	C	0.136087	0.318964	0.66978
56	C	0.09885	0.300346	0.670871
57	H	0.09445	0.298146	0.741652
58	C	0.136088	0.818966	0.003115
59	C	0.09885	0.800346	0.004205
60	H	0.094451	0.798148	0.074983
61	C	0.136088	0.818966	0.336448
62	C	0.09885	0.800346	0.337539
63	H	0.094451	0.798148	0.408316
64	C	0.136088	0.818966	0.66978
65	C	0.09885	0.800346	0.670871
66	H	0.094451	0.798148	0.741652
67	N	0.154247	0.354951	0.0033
68	N	0.154246	0.301136	0.0033
69	N	0.154247	0.354951	0.336633
70	N	0.154246	0.301136	0.336633
71	N	0.154247	0.354951	0.669965
72	N	0.154246	0.301136	0.669965
73	N	0.154249	0.854953	0.0033
74	N	0.154246	0.801138	0.0033
75	N	0.154249	0.854953	0.336633
76	N	0.154246	0.801138	0.336633
77	N	0.154249	0.854953	0.669965
78	N	0.154246	0.801138	0.669965
79	C	0.190234	0.37311	0.003115
80	C	0.190234	0.318964	0.003115
81	N	0.208062	0.354951	0.0033
82	C	0.320804	0.134248	0.002766
83	N	0.356791	0.152408	0.002964
84	C	0.374952	0.188394	0.002766
85	N	0.356791	0.206222	0.002964
86	C	0.320805	0.188396	0.002766
87	N	0.302978	0.152409	0.002964
88	C	0.302188	0.207014	0.003949
89	C	0.292166	0.217036	0.297319
90	N	0.2742	0.235001	0.299191
91	C	0.264889	0.244311	0.00499
92	C	0.274324	0.234877	0.046335
93	C	0.293038	0.216164	0.045272
94	H	0.300047	0.209155	0.074738
95	C	0.246152	0.263046	0.005042
96	C	0.218841	0.290356	0.297521
97	C	0.208852	0.300344	0.004205
98	C	0.218036	0.291158	0.045478
99	H	0.298218	0.210985	0.266609
100	N	0.236808	0.27239	0.299294
101	C	0.236752	0.272446	0.046438
102	C	0.246248	0.26295	0.087258
103	C	0.264863	0.244337	0.087207
104	H	0.239694	0.269501	0.117342
105	H	0.271442	0.237759	0.117255
106	H	0.211053	0.298143	0.074982
107	H	0.212763	0.296433	0.266843
108	C	0.302186	0.097013	0.003949
109	C	0.292164	0.076969	0.297319
110	N	0.274199	0.041038	0.299191
111	C	0.264889	0.022417	0.004991
112	C	0.274323	0.041287	0.046335
113	C	0.293036	0.078713	0.045272
114	H	0.300045	0.092731	0.074738
115	C	0.246153	0.484946	0.005043
116	C	0.218842	0.430326	0.297522
117	C	0.208854	0.410347	0.004205
118	C	0.218039	0.428718	0.045479
119	H	0.298216	0.089072	0.266608
120	N	0.236808	0.466257	0.299295
121	C	0.236753	0.466146	0.046439
122	C	0.246248	0.485137	0.087259
123	C	0.264863	0.022366	0.087207
124	H	0.239696	0.472032	0.117343
125	H	0.271441	0.035523	0.117255
126	H	0.211053	0.414748	0.074982
127	H	0.212764	0.418169	0.266843
128	C	0.412187	0.207011	0.003949
129	C	0.432231	0.217033	0.29732
130	N	0.468161	0.234999	0.299192
131	C	0.486781	0.24431	0.004991
132	C	0.467913	0.234874	0.046336
133	C	0.430486	0.216161	0.045273
134	H	0.416467	0.209152	0.074739
135	H	0.420127	0.210982	0.266609
136	C	0.486833	0.244336	0.087208
137	H	0.473676	0.237757	0.117256
138	C	0.190234	0.37311	0.336448
139	C	0.190234	0.318964	0.336448
140	N	0.208062	0.354951	0.336633
141	C	0.320804	0.134248	0.336099
142	N	0.356791	0.152408	0.336297
143	C	0.374952	0.188394	0.336099
144	N	0.356791	0.206222	0.336297
145	C	0.320805	0.188396	0.336099
146	N	0.302978	0.152409	0.336297
147	C	0.302188	0.207014	0.337281
148	C	0.292166	0.217036	0.630654
149	N	0.2742	0.235001	0.632524
150	C	0.264889	0.244311	0.338325
151	C	0.274324	0.234877	0.379667
152	C	0.293038	0.216164	0.378606
153	H	0.300047	0.209155	0.408071
154	C	0.246152	0.263046	0.338375
155	C	0.218841	0.290356	0.630856
156	C	0.208852	0.300344	0.337539
157	C	0.218036	0.291158	0.378811
158	H	0.298218	0.210985	0.599943
159	N	0.236808	0.27239	0.632629
160	C	0.236752	0.272446	0.379771
161	C	0.246248	0.26295	0.420593
162	C	0.264863	0.244337	0.420539
163	H	0.239694	0.269501	0.450676
164	H	0.271442	0.237759	0.450589
165	H	0.211053	0.298143	0.408316
166	H	0.212763	0.296433	0.600178
167	C	0.302186	0.097013	0.337281
168	C	0.292164	0.076969	0.630654
169	N	0.274199	0.041038	0.632524
170	C	0.264889	0.022417	0.338325
171	C	0.274323	0.041287	0.379667
172	C	0.293036	0.078713	0.378606
173	H	0.300045	0.092731	0.408071
174	C	0.246153	0.484946	0.338375
175	C	0.218842	0.430326	0.630856
176	C	0.208854	0.410347	0.337539
177	C	0.218039	0.428718	0.378811
178	H	0.298216	0.089072	0.599943
179	N	0.236808	0.466257	0.632629
180	C	0.236753	0.466146	0.379771
181	C	0.246248	0.485137	0.420593
182	C	0.264863	0.022366	0.420542
183	H	0.239696	0.472032	0.450676
184	H	0.271441	0.035523	0.450589
185	H	0.211053	0.414748	0.408316
186	H	0.212764	0.418169	0.600178
187	C	0.412187	0.207011	0.337284
188	C	0.432231	0.217033	0.630654
189	N	0.468161	0.234999	0.632524
190	C	0.486781	0.24431	0.338325
191	C	0.467913	0.234874	0.37967
192	C	0.430486	0.216161	0.378606
193	H	0.416467	0.209152	0.408071
194	H	0.420127	0.210982	0.599943
195	C	0.486833	0.244336	0.420542
196	H	0.473676	0.237757	0.450589
197	C	0.190234	0.37311	0.66978
198	C	0.190234	0.318964	0.66978
199	N	0.208062	0.354951	0.669965
200	C	0.320804	0.134248	0.669431
201	N	0.356791	0.152408	0.669629
202	C	0.374952	0.188394	0.669431
203	N	0.356791	0.206222	0.669632
204	C	0.320805	0.188396	0.669431
205	N	0.302978	0.152409	0.669632
206	C	0.302188	0.207014	0.670616
207	C	0.292166	0.217036	0.963986
208	N	0.2742	0.235001	0.965856
209	C	0.264889	0.244311	0.671657
210	C	0.274324	0.234877	0.713002
211	C	0.293038	0.216164	0.711938
212	H	0.300047	0.209155	0.741407
213	C	0.246152	0.263046	0.671711
214	C	0.218841	0.290356	0.964187
215	C	0.208852	0.300344	0.670871
216	C	0.218036	0.291158	0.712146
217	H	0.298218	0.210985	0.933275
218	N	0.236808	0.27239	0.96596
219	C	0.236752	0.272446	0.713106
220	C	0.246248	0.26295	0.753925
221	C	0.264863	0.244337	0.753874
222	H	0.239694	0.269501	0.784011
223	H	0.271442	0.237759	0.78392
224	H	0.211053	0.298143	0.741648
225	H	0.212763	0.296433	0.93351
226	C	0.302186	0.097013	0.670616
227	C	0.292164	0.076969	0.963986
228	N	0.274199	0.041038	0.96586
229	C	0.264889	0.022417	0.671657
230	C	0.274323	0.041287	0.713002
231	C	0.293036	0.078713	0.711941
232	H	0.300045	0.092731	0.741407
233	C	0.246153	0.484946	0.671711
234	C	0.218842	0.430326	0.964187
235	C	0.208854	0.410347	0.670871
236	C	0.218039	0.428718	0.712146
237	H	0.298216	0.089072	0.933275
238	N	0.236808	0.466257	0.96596
239	C	0.236753	0.466146	0.713106
240	C	0.246248	0.485137	0.753925
241	C	0.264863	0.022366	0.753874
242	H	0.239696	0.472032	0.784011
243	H	0.271441	0.035523	0.783924
244	H	0.211053	0.414748	0.741648
245	H	0.212764	0.418169	0.93351
246	C	0.412187	0.207011	0.670616
247	C	0.432231	0.217033	0.963986
248	N	0.468161	0.234999	0.96586
249	C	0.486781	0.24431	0.67166
250	C	0.467913	0.234874	0.713002
251	C	0.430486	0.216161	0.711941
252	H	0.416467	0.209152	0.741407
253	H	0.420127	0.210982	0.933275
254	C	0.486833	0.244336	0.753874
255	H	0.473676	0.237757	0.783924
256	C	0.190236	0.873112	0.003115
257	C	0.190234	0.818963	0.003115
258	N	0.208062	0.85495	0.0033
259	C	0.320805	0.63425	0.002766
260	N	0.356792	0.652409	0.002964
261	C	0.374951	0.688393	0.002766
262	N	0.356793	0.706222	0.002964
263	C	0.320806	0.688396	0.002766
264	N	0.302978	0.652409	0.002964
265	C	0.302188	0.707013	0.003949
266	C	0.292166	0.717036	0.297319
267	N	0.274201	0.735001	0.299191
268	C	0.26489	0.744311	0.00499
269	C	0.274325	0.734877	0.046335
270	C	0.293038	0.716164	0.045272
271	H	0.300047	0.709156	0.074738
272	C	0.246153	0.763048	0.005042
273	C	0.218841	0.790355	0.297521
274	C	0.208852	0.800343	0.004205
275	C	0.218038	0.79116	0.045478
276	H	0.298219	0.710985	0.266609
277	N	0.236808	0.77239	0.299294
278	C	0.236752	0.772445	0.046438
279	C	0.246248	0.76295	0.087258
280	C	0.264864	0.744338	0.087207
281	H	0.239696	0.769503	0.117342
282	H	0.271442	0.737758	0.117255
283	H	0.211053	0.798143	0.074982
284	H	0.212763	0.796432	0.266843
285	C	0.302186	0.597012	0.003949
286	C	0.292164	0.576968	0.297319
287	N	0.2742	0.541039	0.299191
288	C	0.26489	0.522419	0.004991
289	C	0.274324	0.541288	0.046335
290	C	0.293037	0.578713	0.045272
291	H	0.300046	0.592731	0.074738
292	C	0.246153	0.984946	0.005043
293	C	0.218842	0.930325	0.297522
294	C	0.208855	0.910349	0.004205
295	C	0.218039	0.928718	0.045479
296	H	0.298217	0.589071	0.266608
297	N	0.236808	0.966257	0.299295
298	C	0.236753	0.966146	0.046439
299	C	0.246248	0.985136	0.087259
300	C	0.264863	0.522366	0.087207
301	H	0.239696	0.972032	0.117343
302	H	0.271442	0.535523	0.117255
303	H	0.211055	0.91475	0.074982
304	H	0.212765	0.918171	0.266843
305	C	0.412187	0.707011	0.003949
306	C	0.432231	0.717033	0.29732
307	N	0.468161	0.734999	0.299192
308	C	0.486783	0.744311	0.004991
309	C	0.467912	0.734874	0.046336
310	C	0.430487	0.716162	0.045273
311	H	0.416469	0.709153	0.074739
312	H	0.420129	0.710983	0.266609
313	C	0.486833	0.744335	0.087208
314	H	0.473677	0.737758	0.117256
315	C	0.190236	0.873112	0.336448
316	C	0.190234	0.818963	0.336448
317	N	0.208062	0.85495	0.336633
318	C	0.320805	0.63425	0.336099
319	N	0.356792	0.652409	0.336297
320	C	0.374951	0.688393	0.336099
321	N	0.356793	0.706222	0.336297
322	C	0.320806	0.688396	0.336099
323	N	0.302978	0.652409	0.336297
324	C	0.302188	0.707013	0.337281
325	C	0.292166	0.717036	0.630654
326	N	0.274201	0.735001	0.632524
327	C	0.26489	0.744311	0.338325
328	C	0.274325	0.734877	0.379667
329	C	0.293038	0.716164	0.378606
330	H	0.300047	0.709156	0.408071
331	C	0.246153	0.763048	0.338375
332	C	0.218841	0.790355	0.630856
333	C	0.208852	0.800343	0.337539
334	C	0.218038	0.79116	0.378811
335	H	0.298219	0.710985	0.599943
336	N	0.236808	0.77239	0.632629
337	C	0.236752	0.772445	0.379771
338	C	0.246248	0.76295	0.420593
339	C	0.264864	0.744338	0.420539
340	H	0.239696	0.769503	0.450676
341	H	0.271442	0.737758	0.450589
342	H	0.211053	0.798143	0.408316
343	H	0.212763	0.796432	0.600178
344	C	0.302186	0.597012	0.337281
345	C	0.292164	0.576968	0.630654
346	N	0.2742	0.541039	0.632524
347	C	0.26489	0.522419	0.338325
348	C	0.274324	0.541288	0.379667
349	C	0.293037	0.578713	0.378606
350	H	0.300046	0.592731	0.408071
351	C	0.246153	0.984946	0.338375
352	C	0.218842	0.930325	0.630856
353	C	0.208855	0.910349	0.337539
354	C	0.218039	0.928718	0.378811
355	H	0.298217	0.589071	0.599943
356	N	0.236808	0.966257	0.632629
357	C	0.236753	0.966146	0.379771
358	C	0.246248	0.985136	0.420593
359	C	0.264863	0.522366	0.420542
360	H	0.239696	0.972032	0.450676
361	H	0.271442	0.535523	0.450589
362	H	0.211055	0.91475	0.408316
363	H	0.212765	0.918171	0.600178
364	C	0.412187	0.707011	0.337284
365	C	0.432231	0.717033	0.630654
366	N	0.468161	0.734999	0.632524
367	C	0.486783	0.744311	0.338325
368	C	0.467912	0.734874	0.37967
369	C	0.430487	0.716162	0.378606
370	H	0.416469	0.709153	0.408071
371	H	0.420129	0.710983	0.599943
372	C	0.486833	0.744335	0.420542
373	H	0.473677	0.737758	0.450589
374	C	0.190236	0.873112	0.66978
375	C	0.190234	0.818963	0.66978
376	N	0.208062	0.85495	0.669965
377	C	0.320805	0.63425	0.669431
378	N	0.356792	0.652409	0.669629
379	C	0.374951	0.688393	0.669431
380	N	0.356793	0.706222	0.669632
381	C	0.320806	0.688396	0.669431
382	N	0.302978	0.652409	0.669632
383	C	0.302188	0.707013	0.670616
384	C	0.292166	0.717036	0.963986
385	N	0.274201	0.735001	0.965856
386	C	0.26489	0.744311	0.671657
387	C	0.274325	0.734877	0.713002
388	C	0.293038	0.716164	0.711938
389	H	0.300047	0.709156	0.741407
390	C	0.246153	0.763048	0.671711
391	C	0.218841	0.790355	0.964187
392	C	0.208852	0.800343	0.670871
393	C	0.218038	0.79116	0.712146
394	H	0.298219	0.710985	0.933275
395	N	0.236808	0.77239	0.96596
396	C	0.236752	0.772445	0.713106
397	C	0.246248	0.76295	0.753925
398	C	0.264864	0.744338	0.753874
399	H	0.239696	0.769503	0.784011
400	H	0.271442	0.737758	0.78392
401	H	0.211053	0.798143	0.741648
402	H	0.212763	0.796432	0.93351
403	C	0.302186	0.597012	0.670616
404	C	0.292164	0.576968	0.963986
405	N	0.2742	0.541039	0.96586
406	C	0.26489	0.522419	0.671657
407	C	0.274324	0.541288	0.713002
408	C	0.293037	0.578713	0.711941
409	H	0.300046	0.592731	0.741407
410	C	0.246153	0.984946	0.671711
411	C	0.218842	0.930325	0.964187
412	C	0.208855	0.910349	0.670871
413	C	0.218039	0.928718	0.712146
414	H	0.298217	0.589071	0.933275
415	N	0.236808	0.966257	0.96596
416	C	0.236753	0.966146	0.713106
417	C	0.246248	0.985136	0.753925
418	C	0.264863	0.522366	0.753874
419	H	0.239696	0.972032	0.784011
420	H	0.271442	0.535523	0.783924
421	H	0.211055	0.91475	0.741648
422	H	0.212765	0.918171	0.93351
423	C	0.412187	0.707011	0.670616
424	C	0.432231	0.717033	0.963986
425	N	0.468161	0.734999	0.96586
426	C	0.486783	0.744311	0.67166
427	C	0.467912	0.734874	0.713002
428	C	0.430487	0.716162	0.711941
429	H	0.416469	0.709153	0.741407
430	H	0.420129	0.710983	0.933275
431	C	0.486833	0.744335	0.753874
432	H	0.473677	0.737758	0.783924
433	C	0.690235	0.37311	0.003115
434	N	0.654248	0.354951	0.0033
435	C	0.636087	0.318964	0.003115
436	N	0.654245	0.301136	0.0033
437	C	0.690234	0.318964	0.003115
438	N	0.708061	0.354951	0.0033
439	C	0.820803	0.134248	0.002766
440	N	0.85679	0.152408	0.002964
441	C	0.874951	0.188394	0.002766
442	N	0.856792	0.206222	0.002964
443	C	0.820807	0.188396	0.002766
444	N	0.802978	0.152409	0.002964
445	C	0.802188	0.207014	0.003949
446	C	0.792165	0.217036	0.297319
447	N	0.774201	0.235001	0.299191
448	C	0.764888	0.244311	0.00499
449	C	0.774324	0.234877	0.046335
450	C	0.793038	0.216164	0.045272
451	H	0.800048	0.209155	0.074738
452	C	0.746151	0.263046	0.005042
453	C	0.718839	0.290356	0.297521
454	C	0.708852	0.300344	0.004205
455	C	0.718037	0.291158	0.045478
456	H	0.798218	0.210985	0.266609
457	N	0.736808	0.27239	0.299294
458	C	0.736751	0.272446	0.046438
459	C	0.746248	0.26295	0.087258
460	C	0.764862	0.244337	0.087207
461	H	0.739695	0.269501	0.117342
462	H	0.771443	0.237759	0.117255
463	H	0.711052	0.298143	0.074982
464	H	0.712763	0.296433	0.266843
465	C	0.802185	0.097013	0.003949
466	C	0.792163	0.076969	0.297319
467	N	0.7742	0.041038	0.299191
468	C	0.764888	0.022417	0.004991
469	C	0.774322	0.041287	0.046335
470	C	0.793035	0.078713	0.045272
471	H	0.800044	0.092731	0.074738
472	C	0.746153	0.484946	0.005043
473	C	0.718843	0.430326	0.297522
474	C	0.708854	0.410347	0.004205
475	C	0.718039	0.428718	0.045479
476	H	0.798217	0.089072	0.266608
477	N	0.736809	0.466257	0.299295
478	C	0.736753	0.466146	0.046439
479	C	0.746248	0.485137	0.087259
480	C	0.764862	0.022366	0.087207
481	H	0.739696	0.472032	0.117343
482	H	0.77144	0.035523	0.117255
483	H	0.711054	0.414748	0.074982
484	H	0.712764	0.418169	0.266843
485	C	0.912185	0.207011	0.003949
486	C	0.93223	0.217033	0.29732
487	N	0.96816	0.234999	0.299192
488	C	0.98678	0.24431	0.004991
489	C	0.967912	0.234874	0.046336
490	C	0.930487	0.216161	0.045273
491	H	0.916468	0.209152	0.074739
492	C	0.524255	0.263047	0.005044
493	C	0.578873	0.290359	0.297522
494	C	0.59885	0.300346	0.004205
495	C	0.58048	0.291161	0.045479
496	H	0.920128	0.210982	0.266609
497	N	0.542939	0.27239	0.299295
498	C	0.543053	0.272448	0.04644
499	C	0.524062	0.262951	0.08726
500	C	0.986832	0.244336	0.087208
501	H	0.537167	0.269504	0.117344
502	H	0.973675	0.237757	0.117256
503	H	0.59445	0.298146	0.074983
504	H	0.591029	0.296436	0.266843
505	C	0.690235	0.37311	0.336448
506	N	0.654248	0.354951	0.336633
507	C	0.636087	0.318964	0.336448
508	N	0.654245	0.301136	0.336633
509	C	0.690234	0.318964	0.336448
510	N	0.708061	0.354951	0.336633
511	C	0.820803	0.134248	0.336099
512	N	0.85679	0.152408	0.336297
513	C	0.874951	0.188394	0.336099
514	N	0.856792	0.206222	0.336297
515	C	0.820807	0.188396	0.336099
516	N	0.802978	0.152409	0.336297
517	C	0.802188	0.207014	0.337281
518	C	0.792165	0.217036	0.630654
519	N	0.774201	0.235001	0.632524
520	C	0.764888	0.244311	0.338325
521	C	0.774324	0.234877	0.379667
522	C	0.793038	0.216164	0.378606
523	H	0.800048	0.209155	0.408071
524	C	0.746151	0.263046	0.338375
525	C	0.718839	0.290356	0.630856
526	C	0.708852	0.300344	0.337539
527	C	0.718037	0.291158	0.378811
528	H	0.798218	0.210985	0.599943
529	N	0.736808	0.27239	0.632629
530	C	0.736751	0.272446	0.379771
531	C	0.746248	0.26295	0.420593
532	C	0.764862	0.244337	0.420539
533	H	0.739695	0.269501	0.450676
534	H	0.771443	0.237759	0.450589
535	H	0.711052	0.298143	0.408316
536	H	0.712763	0.296433	0.600178
537	C	0.802185	0.097013	0.337281
538	C	0.792163	0.076969	0.630654
539	N	0.7742	0.041038	0.632524
540	C	0.764888	0.022417	0.338325
541	C	0.774322	0.041287	0.379667
542	C	0.793035	0.078713	0.378606
543	H	0.800044	0.092731	0.408071
544	C	0.746153	0.484946	0.338375
545	C	0.718843	0.430326	0.630856
546	C	0.708854	0.410347	0.337539
547	C	0.718039	0.428718	0.378811
548	H	0.798217	0.089072	0.599943
549	N	0.736809	0.466257	0.632629
550	C	0.736753	0.466146	0.379771
551	C	0.746248	0.485137	0.420593
552	C	0.764862	0.022366	0.420542
553	H	0.739696	0.472032	0.450676
554	H	0.77144	0.035523	0.450589
555	H	0.711054	0.414748	0.408316
556	H	0.712764	0.418169	0.600178
557	C	0.912185	0.207011	0.337284
558	C	0.93223	0.217033	0.630654
559	N	0.96816	0.234999	0.632524
560	C	0.98678	0.24431	0.338325
561	C	0.967912	0.234874	0.37967
562	C	0.930487	0.216161	0.378606
563	H	0.916468	0.209152	0.408071
564	C	0.524255	0.263047	0.338379
565	C	0.578873	0.290359	0.630856
566	C	0.59885	0.300346	0.337539
567	C	0.58048	0.291161	0.378814
568	H	0.920128	0.210982	0.599943
569	N	0.542939	0.27239	0.632629
570	C	0.543053	0.272448	0.379775
571	C	0.524062	0.262951	0.420593
572	C	0.986832	0.244336	0.420542
573	H	0.537167	0.269504	0.450679
574	H	0.973675	0.237757	0.450589
575	H	0.59445	0.298146	0.408316
576	H	0.591029	0.296436	0.600178
577	C	0.690235	0.37311	0.66978
578	N	0.654248	0.354951	0.669965
579	C	0.636087	0.318964	0.66978
580	N	0.654245	0.301136	0.669965
581	C	0.690234	0.318964	0.66978
582	N	0.708061	0.354951	0.669965
583	C	0.820803	0.134248	0.669431
584	N	0.85679	0.152408	0.669629
585	C	0.874951	0.188394	0.669431
586	N	0.856792	0.206222	0.669632
587	C	0.820807	0.188396	0.669431
588	N	0.802978	0.152409	0.669632
589	C	0.802188	0.207014	0.670616
590	C	0.792165	0.217036	0.963986
591	N	0.774201	0.235001	0.965856
592	C	0.764888	0.244311	0.671657
593	C	0.774324	0.234877	0.713002
594	C	0.793038	0.216164	0.711938
595	H	0.800048	0.209155	0.741407
596	C	0.746151	0.263046	0.671711
597	C	0.718839	0.290356	0.964187
598	C	0.708852	0.300344	0.670871
599	C	0.718037	0.291158	0.712146
600	H	0.798218	0.210985	0.933275
601	N	0.736808	0.27239	0.96596
602	C	0.736751	0.272446	0.713106
603	C	0.746248	0.26295	0.753925
604	C	0.764862	0.244337	0.753874
605	H	0.739695	0.269501	0.784011
606	H	0.771443	0.237759	0.78392
607	H	0.711052	0.298143	0.741648
608	H	0.712763	0.296433	0.93351
609	C	0.802185	0.097013	0.670616
610	C	0.792163	0.076969	0.963986
611	N	0.7742	0.041038	0.96586
612	C	0.764888	0.022417	0.671657
613	C	0.774322	0.041287	0.713002
614	C	0.793035	0.078713	0.711941
615	H	0.800044	0.092731	0.741407
616	C	0.746153	0.484946	0.671711
617	C	0.718843	0.430326	0.964187
618	C	0.708854	0.410347	0.670871
619	C	0.718039	0.428718	0.712146
620	H	0.798217	0.089072	0.933275
621	N	0.736809	0.466257	0.96596
622	C	0.736753	0.466146	0.713106
623	C	0.746248	0.485137	0.753925
624	C	0.764862	0.022366	0.753874
625	H	0.739696	0.472032	0.784011
626	H	0.77144	0.035523	0.783924
627	H	0.711054	0.414748	0.741648
628	H	0.712764	0.418169	0.93351
629	C	0.912185	0.207011	0.670616
630	C	0.93223	0.217033	0.963986
631	N	0.96816	0.234999	0.96586
632	C	0.98678	0.24431	0.67166
633	C	0.967912	0.234874	0.713002
634	C	0.930487	0.216161	0.711941
635	H	0.916468	0.209152	0.741407
636	C	0.524255	0.263047	0.671711
637	C	0.578873	0.290359	0.964191
638	C	0.59885	0.300346	0.670871
639	C	0.58048	0.291161	0.712146
640	H	0.920128	0.210982	0.933275
641	N	0.542939	0.27239	0.965964
642	C	0.543053	0.272448	0.713106
643	C	0.524062	0.262951	0.753928
644	C	0.986832	0.244336	0.753874
645	H	0.537167	0.269504	0.784011
646	H	0.973675	0.237757	0.783924
647	H	0.59445	0.298146	0.741652
648	H	0.591029	0.296436	0.93351
649	C	0.690237	0.873112	0.003115
650	N	0.654249	0.854953	0.0033
651	C	0.636089	0.818966	0.003115
652	N	0.654247	0.801138	0.0033
653	C	0.690235	0.818963	0.003115
654	N	0.708061	0.85495	0.0033
655	C	0.820805	0.63425	0.002766
656	N	0.856792	0.652409	0.002964
657	C	0.874952	0.688393	0.002766
658	N	0.856793	0.706222	0.002964
659	C	0.820805	0.688396	0.002766
660	N	0.802979	0.652409	0.002964
661	C	0.802188	0.707013	0.003949
662	C	0.792166	0.717036	0.297319
663	N	0.774202	0.735001	0.299191
664	C	0.76489	0.744311	0.00499
665	C	0.774326	0.734877	0.046335
666	C	0.79304	0.716164	0.045272
667	H	0.800047	0.709156	0.074738
668	C	0.746153	0.763048	0.005042
669	C	0.71884	0.790355	0.297521
670	C	0.708853	0.800343	0.004205
671	C	0.718039	0.79116	0.045478
672	H	0.798219	0.710985	0.266609
673	N	0.736808	0.77239	0.299294
674	C	0.736751	0.772445	0.046438
675	C	0.746249	0.76295	0.087258
676	C	0.764864	0.744338	0.087207
677	H	0.739695	0.769503	0.117342
678	H	0.771441	0.737758	0.117255
679	H	0.711053	0.798143	0.074982
680	H	0.712764	0.796432	0.266843
681	C	0.802186	0.597012	0.003949
682	C	0.792164	0.576968	0.297319
683	N	0.774199	0.541039	0.299191
684	C	0.764889	0.522419	0.004991
685	C	0.774324	0.541288	0.046335
686	C	0.793036	0.578713	0.045272
687	H	0.800045	0.592731	0.074738
688	C	0.746154	0.984946	0.005043
689	C	0.718843	0.930325	0.297522
690	C	0.708856	0.910349	0.004205
691	C	0.71804	0.928718	0.045479
692	H	0.798216	0.589071	0.266608
693	N	0.736809	0.966257	0.299295
694	C	0.736754	0.966146	0.046439
695	C	0.746249	0.985136	0.087259
696	C	0.764863	0.522366	0.087207
697	H	0.739697	0.972032	0.117343
698	H	0.771442	0.535523	0.117255
699	H	0.711056	0.91475	0.074982
700	H	0.712764	0.918171	0.266843
701	C	0.912186	0.707011	0.003949
702	C	0.932231	0.717033	0.29732
703	N	0.968161	0.734999	0.299192
704	C	0.986782	0.744311	0.004991
705	C	0.967913	0.734874	0.046336
706	C	0.930486	0.716162	0.045273
707	H	0.916468	0.709153	0.074739
708	C	0.524255	0.763048	0.005044
709	C	0.578874	0.790358	0.297522
710	C	0.59885	0.800346	0.004205
711	C	0.580482	0.791163	0.045479
712	H	0.920127	0.710983	0.266609
713	N	0.542942	0.772392	0.299295
714	C	0.543054	0.772448	0.04644
715	C	0.524063	0.762953	0.08726
716	C	0.986833	0.744335	0.087208
717	H	0.537167	0.769503	0.117344
718	H	0.973677	0.737758	0.117256
719	H	0.594451	0.798148	0.074983
720	H	0.591029	0.796438	0.266843
721	C	0.690237	0.873112	0.336448
722	N	0.654249	0.854953	0.336633
723	C	0.636089	0.818966	0.336448
724	N	0.654247	0.801138	0.336633
725	C	0.690235	0.818963	0.336448
726	N	0.708061	0.85495	0.336633
727	C	0.820805	0.63425	0.336099
728	N	0.856792	0.652409	0.336297
729	C	0.874952	0.688393	0.336099
730	N	0.856793	0.706222	0.336297
731	C	0.820805	0.688396	0.336099
732	N	0.802979	0.652409	0.336297
733	C	0.802188	0.707013	0.337281
734	C	0.792166	0.717036	0.630654
735	N	0.774202	0.735001	0.632524
736	C	0.76489	0.744311	0.338325
737	C	0.774326	0.734877	0.379667
738	C	0.79304	0.716164	0.378606
739	H	0.800047	0.709156	0.408071
740	C	0.746153	0.763048	0.338375
741	C	0.71884	0.790355	0.630856
742	C	0.708853	0.800343	0.337539
743	C	0.718039	0.79116	0.378811
744	H	0.798219	0.710985	0.599943
745	N	0.736808	0.77239	0.632629
746	C	0.736751	0.772445	0.379771
747	C	0.746249	0.76295	0.420593
748	C	0.764864	0.744338	0.420539
749	H	0.739695	0.769503	0.450676
750	H	0.771441	0.737758	0.450589
751	H	0.711053	0.798143	0.408316
752	H	0.712764	0.796432	0.600178
753	C	0.802186	0.597012	0.337281
754	C	0.792164	0.576968	0.630654
755	N	0.774199	0.541039	0.632524
756	C	0.764889	0.522419	0.338325
757	C	0.774324	0.541288	0.379667
758	C	0.793036	0.578713	0.378606
759	H	0.800045	0.592731	0.408071
760	C	0.746154	0.984946	0.338375
761	C	0.718843	0.930325	0.630856
762	C	0.708856	0.910349	0.337539
763	C	0.71804	0.928718	0.378811
764	H	0.798216	0.589071	0.599943
765	N	0.736809	0.966257	0.632629
766	C	0.736754	0.966146	0.379771
767	C	0.746249	0.985136	0.420593
768	C	0.764863	0.522366	0.420542
769	H	0.739697	0.972032	0.450676
770	H	0.771442	0.535523	0.450589
771	H	0.711056	0.91475	0.408316
772	H	0.712764	0.918171	0.600178
773	C	0.912186	0.707011	0.337284
774	C	0.932231	0.717033	0.630654
775	N	0.968161	0.734999	0.632524
776	C	0.986782	0.744311	0.338325
777	C	0.967913	0.734874	0.37967
778	C	0.930486	0.716162	0.378606
779	H	0.916468	0.709153	0.408071
780	C	0.524255	0.763048	0.338379
781	C	0.578874	0.790358	0.630856
782	C	0.59885	0.800346	0.337539
783	C	0.580482	0.791163	0.378814
784	H	0.920127	0.710983	0.599943
785	N	0.542942	0.772392	0.632629
786	C	0.543054	0.772448	0.379775
787	C	0.524063	0.762953	0.420593
788	C	0.986833	0.744335	0.420542
789	H	0.537167	0.769503	0.450679
790	H	0.973677	0.737758	0.450589
791	H	0.594451	0.798148	0.408316
792	H	0.591029	0.796438	0.600178
793	C	0.690237	0.873112	0.66978
794	N	0.654249	0.854953	0.669965
795	C	0.636089	0.818966	0.66978
796	N	0.654247	0.801138	0.669965
797	C	0.690235	0.818963	0.66978
798	N	0.708061	0.85495	0.669965
799	C	0.820805	0.63425	0.669431
800	N	0.856792	0.652409	0.669629
801	C	0.874952	0.688393	0.669431
802	N	0.856793	0.706222	0.669632
803	C	0.820805	0.688396	0.669431
804	N	0.802979	0.652409	0.669632
805	C	0.802188	0.707013	0.670616
806	C	0.792166	0.717036	0.963986
807	N	0.774202	0.735001	0.965856
808	C	0.76489	0.744311	0.671657
809	C	0.774326	0.734877	0.713002
810	C	0.79304	0.716164	0.711938
811	H	0.800047	0.709156	0.741407
812	C	0.746153	0.763048	0.671711
813	C	0.71884	0.790355	0.964187
814	C	0.708853	0.800343	0.670871
815	C	0.718039	0.79116	0.712146
816	H	0.798219	0.710985	0.933275
817	N	0.736808	0.77239	0.96596
818	C	0.736751	0.772445	0.713106
819	C	0.746249	0.76295	0.753925
820	C	0.764864	0.744338	0.753874
821	H	0.739695	0.769503	0.784011
822	H	0.771441	0.737758	0.78392
823	H	0.711053	0.798143	0.741648
824	H	0.712764	0.796432	0.93351
825	C	0.802186	0.597012	0.670616
826	C	0.792164	0.576968	0.963986
827	N	0.774199	0.541039	0.96586
828	C	0.764889	0.522419	0.671657
829	C	0.774324	0.541288	0.713002
830	C	0.793036	0.578713	0.711941
831	H	0.800045	0.592731	0.741407
832	C	0.746154	0.984946	0.671711
833	C	0.718843	0.930325	0.964187
834	C	0.708856	0.910349	0.670871
835	C	0.71804	0.928718	0.712146
836	H	0.798216	0.589071	0.933275
837	N	0.736809	0.966257	0.96596
838	C	0.736754	0.966146	0.713106
839	C	0.746249	0.985136	0.753925
840	C	0.764863	0.522366	0.753874
841	H	0.739697	0.972032	0.784011
842	H	0.771442	0.535523	0.783924
843	H	0.711056	0.91475	0.741648
844	H	0.712764	0.918171	0.93351
845	C	0.912186	0.707011	0.670616
846	C	0.932231	0.717033	0.963986
847	N	0.968161	0.734999	0.96586
848	C	0.986782	0.744311	0.67166
849	C	0.967913	0.734874	0.713002
850	C	0.930486	0.716162	0.711941
851	H	0.916468	0.709153	0.741407
852	C	0.524255	0.763048	0.671711
853	C	0.578874	0.790358	0.964191
854	C	0.59885	0.800346	0.670871
855	C	0.580482	0.791163	0.712146
856	H	0.920127	0.710983	0.933275
857	N	0.542942	0.772392	0.965964
858	C	0.543054	0.772448	0.713106
859	C	0.524063	0.762953	0.753928
860	C	0.986833	0.744335	0.753874
861	H	0.537167	0.769503	0.784011
862	H	0.973677	0.737758	0.783924
863	H	0.594451	0.798148	0.741652
864	H	0.591029	0.796438	0.93351
