data_C576H288_2018-02-15_10:43:33
#******************************************
#
# CIF file created by Zeo++
# Zeo++ is an open source package to
# analyze microporous materials
#
#*******************************************

_cell_length_a		26.1577   
_cell_length_b		29.9103   
_cell_length_c		30.1235   
_cell_angle_alpha		92.6105   
_cell_angle_beta		88.5078   
_cell_angle_gamma		90.0814   

_symmetry_space_group_name_H-M		'P1'
_symmetry_Int_Tables_number		1
_symmetry_cell_setting		Triclinic

loop_
_symmetry_equiv_pos_as_xyz
'+x,+y,+z'

loop_
_atom_site_label
_atom_site_type_symbol
_atom_site_fract_x
_atom_site_fract_y
_atom_site_fract_z
1	C	0.494093	0.997887	0.995794
2	C	0.023985	0.037412	0.992679
3	C	0.077322	0.039921	0.999941
4	C	0.101562	0.998914	0.007831
5	C	0.077058	0.206571	0.005753
6	C	0.023066	0.208382	0.001126
7	H	0.006995	0.065335	0.315401
8	H	0.00362	0.179402	0.001961
9	H	0.137983	0.000727	0.018476
10	C	0.438809	0.997912	0.995811
11	C	0.409521	0.03791	0.001089
12	C	0.355259	0.04014	0.005782
13	C	0.330629	0.997997	0.007949
14	C	0.355337	0.20626	9.1e-05
15	C	0.409108	0.208093	0.992819
16	H	0.428904	0.066978	0.001783
17	H	0.293585	0.997175	0.018651
18	H	0.426718	0.179188	0.31554
19	C	0.105341	0.08125	0.999946
20	C	0.080626	0.122979	0.007831
21	C	0.105253	0.165132	0.005754
22	C	0.159523	0.162897	0.001126
23	C	0.188815	0.122904	0.995804
24	C	0.159117	0.083088	0.992716
25	H	0.178915	0.191955	0.001953
26	H	0.176742	0.054202	0.982072
27	H	0.043566	0.122142	0.018468
28	C	0.327315	0.164933	0.000102
29	C	0.351554	0.123919	0.007967
30	C	0.327058	0.081575	0.005811
31	C	0.273079	0.083371	0.001092
32	C	0.244101	0.122888	0.995844
33	C	0.273979	0.162431	0.992832
34	H	0.253664	0.054361	0.001751
35	H	0.257003	0.190361	0.982215
36	H	0.387966	0.125717	0.018643
37	C	0.494096	0.997887	0.329128
38	C	0.023985	0.037412	0.326015
39	C	0.077322	0.039921	0.333272
40	C	0.101562	0.998914	0.341164
41	C	0.077058	0.206572	0.339086
42	C	0.023066	0.208382	0.334459
43	H	0.006995	0.065335	0.648733
44	H	0.00362	0.179402	0.335293
45	H	0.137983	0.000727	0.351808
46	C	0.438808	0.997912	0.329146
47	C	0.409522	0.037911	0.334422
48	C	0.355259	0.04014	0.339116
49	C	0.330629	0.997997	0.341284
50	C	0.355337	0.20626	0.333425
51	C	0.409106	0.208093	0.326154
52	H	0.4289	0.066978	0.335117
53	H	0.293585	0.997174	0.351984
54	H	0.426715	0.179188	0.648873
55	C	0.105341	0.08125	0.333279
56	C	0.080626	0.122979	0.341164
57	C	0.105254	0.165132	0.339086
58	C	0.159523	0.162897	0.334459
59	C	0.188815	0.122904	0.329139
60	C	0.159117	0.083088	0.326049
61	H	0.178915	0.191955	0.335287
62	H	0.176742	0.054202	0.315405
63	H	0.043566	0.122141	0.351802
64	C	0.327315	0.164933	0.333435
65	C	0.351554	0.123919	0.3413
66	C	0.327058	0.081575	0.339143
67	C	0.273079	0.08337	0.334426
68	C	0.244101	0.122887	0.329177
69	C	0.273979	0.162431	0.326167
70	H	0.253664	0.054361	0.335084
71	H	0.257003	0.190361	0.315549
72	H	0.387967	0.125717	0.351974
73	C	0.494096	0.997887	0.662462
74	C	0.023985	0.037412	0.659347
75	C	0.077322	0.039921	0.666607
76	C	0.101562	0.998914	0.674496
77	C	0.077058	0.206571	0.672418
78	C	0.023066	0.208382	0.667791
79	H	0.006995	0.065336	0.982068
80	H	0.003621	0.179402	0.668625
81	H	0.137983	0.000727	0.685143
82	C	0.438808	0.997912	0.662479
83	C	0.409523	0.03791	0.667754
84	C	0.355259	0.04014	0.672448
85	C	0.330629	0.997997	0.674616
86	C	0.355337	0.20626	0.666757
87	C	0.409107	0.208093	0.659487
88	H	0.428901	0.066978	0.668449
89	H	0.293585	0.997172	0.685316
90	H	0.426716	0.179188	0.982205
91	C	0.105341	0.08125	0.666611
92	C	0.080626	0.122979	0.674496
93	C	0.105254	0.165132	0.672418
94	C	0.159523	0.162897	0.667791
95	C	0.188815	0.122904	0.662472
96	C	0.159117	0.083088	0.659381
97	H	0.178916	0.191955	0.668619
98	H	0.176742	0.054202	0.648736
99	H	0.043566	0.122141	0.685134
100	C	0.327315	0.164933	0.666767
101	C	0.351554	0.123919	0.674632
102	C	0.327058	0.081575	0.672478
103	C	0.273079	0.08337	0.667758
104	C	0.244101	0.122887	0.662509
105	C	0.273979	0.162432	0.6595
106	H	0.253664	0.054361	0.668416
107	H	0.257003	0.190361	0.648883
108	H	0.387968	0.125717	0.68531
109	C	0.494094	0.247887	0.995794
110	C	0.023985	0.287412	0.992679
111	C	0.077322	0.289921	0.999941
112	C	0.101562	0.248915	0.007831
113	C	0.077058	0.456572	0.005753
114	C	0.023066	0.458382	0.001126
115	H	0.006995	0.315336	0.315401
116	H	0.003621	0.429404	0.001961
117	H	0.137983	0.250727	0.018476
118	C	0.43881	0.247912	0.995811
119	C	0.409522	0.287911	0.001089
120	C	0.355259	0.290141	0.005782
121	C	0.330629	0.247997	0.007949
122	C	0.355337	0.456259	9.1e-05
123	C	0.409109	0.458092	0.992819
124	H	0.428901	0.316978	0.001783
125	H	0.293585	0.247173	0.018651
126	H	0.426716	0.429189	0.31554
127	C	0.105341	0.33125	0.999946
128	C	0.080626	0.37298	0.007831
129	C	0.105254	0.415131	0.005754
130	C	0.159523	0.412896	0.001126
131	C	0.188815	0.372904	0.995804
132	C	0.159117	0.333088	0.992716
133	H	0.178915	0.441954	0.001953
134	H	0.176742	0.304202	0.982072
135	H	0.043566	0.37214	0.018468
136	C	0.327315	0.414932	0.000102
137	C	0.351554	0.373919	0.007967
138	C	0.327058	0.331575	0.005811
139	C	0.273079	0.333371	0.001092
140	C	0.2441	0.372888	0.995844
141	C	0.273979	0.412432	0.992832
142	H	0.253664	0.304361	0.001751
143	H	0.257003	0.440361	0.982215
144	H	0.387967	0.375716	0.018643
145	C	0.494097	0.247887	0.329128
146	C	0.023985	0.287412	0.326015
147	C	0.077322	0.289921	0.333272
148	C	0.101562	0.248915	0.341164
149	C	0.077058	0.456571	0.339086
150	C	0.023066	0.458381	0.334459
151	H	0.006995	0.315336	0.648733
152	H	0.003621	0.429403	0.335293
153	H	0.137983	0.250727	0.351808
154	C	0.438808	0.247912	0.329146
155	C	0.409519	0.287911	0.334422
156	C	0.355259	0.290141	0.339116
157	C	0.330629	0.247997	0.341284
158	C	0.355337	0.456261	0.333425
159	C	0.409107	0.458094	0.326154
160	H	0.428901	0.316978	0.335117
161	H	0.293585	0.247173	0.351984
162	H	0.426716	0.429188	0.648873
163	C	0.105341	0.33125	0.333279
164	C	0.080626	0.372979	0.341164
165	C	0.105254	0.415133	0.339086
166	C	0.159523	0.412899	0.334459
167	C	0.188815	0.372902	0.329139
168	C	0.159117	0.333088	0.326049
169	H	0.178915	0.441957	0.335287
170	H	0.176742	0.304202	0.315405
171	H	0.043566	0.372142	0.351802
172	C	0.327315	0.414934	0.333435
173	C	0.351554	0.373921	0.3413
174	C	0.327058	0.331575	0.339143
175	C	0.273079	0.333371	0.334426
176	C	0.2441	0.372887	0.329177
177	C	0.273979	0.412432	0.326167
178	H	0.253664	0.304361	0.335084
179	H	0.257003	0.44036	0.315549
180	H	0.387968	0.375718	0.351974
181	C	0.494094	0.247888	0.662462
182	C	0.023985	0.287412	0.659347
183	C	0.077322	0.289922	0.666607
184	C	0.101562	0.248915	0.674496
185	C	0.077058	0.456573	0.672418
186	C	0.023066	0.458383	0.667791
187	H	0.006995	0.315336	0.982068
188	H	0.003621	0.429401	0.668625
189	H	0.137983	0.250727	0.685143
190	C	0.438809	0.247912	0.662479
191	C	0.40952	0.287911	0.667754
192	C	0.355259	0.290141	0.672448
193	C	0.330629	0.247997	0.674616
194	C	0.355337	0.45626	0.666757
195	C	0.409108	0.458093	0.659487
196	H	0.428902	0.316978	0.668449
197	H	0.293585	0.247172	0.685316
198	H	0.426717	0.429187	0.982205
199	C	0.105341	0.33125	0.666611
200	C	0.080626	0.372978	0.674496
201	C	0.105254	0.415132	0.672418
202	C	0.159523	0.412897	0.667791
203	C	0.188815	0.372905	0.662472
204	C	0.159117	0.333088	0.659381
205	H	0.178915	0.441955	0.668619
206	H	0.176742	0.304202	0.648736
207	H	0.043566	0.372141	0.685134
208	C	0.327315	0.414933	0.666767
209	C	0.351554	0.37392	0.674632
210	C	0.327058	0.331575	0.672478
211	C	0.273079	0.333371	0.667758
212	C	0.2441	0.372886	0.662509
213	C	0.273979	0.41243	0.6595
214	H	0.253665	0.304362	0.668416
215	H	0.257003	0.440362	0.648883
216	H	0.387969	0.375717	0.68531
217	C	0.494095	0.497887	0.995794
218	C	0.023985	0.537413	0.992679
219	C	0.077322	0.539922	0.999941
220	C	0.101562	0.498913	0.007831
221	C	0.077058	0.706573	0.005753
222	C	0.023066	0.708384	0.001126
223	H	0.006995	0.565337	0.315401
224	H	0.00362	0.679402	0.001961
225	H	0.137983	0.500729	0.018476
226	C	0.438807	0.497914	0.995811
227	C	0.409519	0.537912	0.001089
228	C	0.355259	0.54014	0.005782
229	C	0.330629	0.497996	0.007949
230	C	0.355337	0.70626	9.1e-05
231	C	0.40911	0.708093	0.992819
232	H	0.428901	0.566977	0.001783
233	H	0.293585	0.497173	0.018651
234	H	0.426716	0.67919	0.31554
235	C	0.105341	0.581249	0.999946
236	C	0.080626	0.622978	0.007831
237	C	0.105253	0.665132	0.005754
238	C	0.159523	0.662898	0.001126
239	C	0.188815	0.622904	0.995804
240	C	0.159117	0.583087	0.992716
241	H	0.178915	0.691956	0.001953
242	H	0.176742	0.554201	0.982072
243	H	0.043566	0.622141	0.018468
244	C	0.327315	0.664933	0.000102
245	C	0.351554	0.62392	0.007967
246	C	0.327057	0.581575	0.005811
247	C	0.273079	0.583371	0.001092
248	C	0.244101	0.622889	0.995844
249	C	0.273979	0.662433	0.992832
250	H	0.253664	0.554361	0.001751
251	H	0.257003	0.690362	0.982215
252	H	0.387968	0.625717	0.018643
253	C	0.494094	0.497889	0.329128
254	C	0.023985	0.537412	0.326015
255	C	0.077322	0.539921	0.333272
256	C	0.101562	0.498916	0.341164
257	C	0.077058	0.706572	0.339086
258	C	0.023066	0.708382	0.334459
259	H	0.006995	0.565336	0.648733
260	H	0.00362	0.679404	0.335293
261	H	0.137983	0.500727	0.351808
262	C	0.438809	0.497913	0.329146
263	C	0.40952	0.537911	0.334422
264	C	0.355259	0.540142	0.339116
265	C	0.330629	0.497998	0.341284
266	C	0.355337	0.706262	0.333425
267	C	0.409108	0.708092	0.326154
268	H	0.428902	0.566979	0.335117
269	H	0.293585	0.497171	0.351984
270	H	0.426717	0.679189	0.648873
271	C	0.105341	0.581251	0.333279
272	C	0.080626	0.62298	0.341164
273	C	0.105253	0.665131	0.339086
274	C	0.159523	0.662896	0.334459
275	C	0.188815	0.622904	0.329139
276	C	0.159117	0.58309	0.326049
277	H	0.178915	0.691954	0.335287
278	H	0.176742	0.554204	0.315405
279	H	0.043566	0.622144	0.351802
280	C	0.327315	0.664932	0.333435
281	C	0.351554	0.623919	0.3413
282	C	0.327057	0.581574	0.339143
283	C	0.273079	0.58337	0.334426
284	C	0.244101	0.622889	0.329177
285	C	0.273979	0.662433	0.326167
286	H	0.253664	0.55436	0.335084
287	H	0.257003	0.690361	0.315549
288	H	0.387969	0.625719	0.351974
289	C	0.494094	0.497888	0.662462
290	C	0.023985	0.537414	0.659347
291	C	0.077322	0.539923	0.666607
292	C	0.101562	0.498914	0.674496
293	C	0.077058	0.70657	0.672418
294	C	0.023066	0.708384	0.667791
295	H	0.006995	0.565338	0.982068
296	H	0.003621	0.679402	0.668625
297	H	0.137983	0.500726	0.685143
298	C	0.43881	0.497912	0.662479
299	C	0.409521	0.537909	0.667754
300	C	0.355259	0.540141	0.672448
301	C	0.330629	0.497997	0.674616
302	C	0.355337	0.706261	0.666757
303	C	0.409109	0.708094	0.659487
304	H	0.428903	0.566978	0.668449
305	H	0.293585	0.497173	0.685316
306	H	0.426718	0.679188	0.982205
307	C	0.105341	0.58125	0.666611
308	C	0.080626	0.622979	0.674496
309	C	0.105253	0.665133	0.672418
310	C	0.159523	0.662898	0.667791
311	C	0.188815	0.622906	0.662472
312	C	0.159117	0.583089	0.659381
313	H	0.178915	0.691956	0.668619
314	H	0.176742	0.554202	0.648736
315	H	0.043566	0.622142	0.685134
316	C	0.327315	0.664934	0.666767
317	C	0.351554	0.623921	0.674632
318	C	0.327057	0.581576	0.672478
319	C	0.273079	0.583372	0.667758
320	C	0.244101	0.622887	0.662509
321	C	0.273979	0.662431	0.6595
322	H	0.253664	0.554362	0.668416
323	H	0.257003	0.690363	0.648883
324	H	0.387969	0.625718	0.68531
325	C	0.494096	0.747888	0.995794
326	C	0.023985	0.787414	0.992679
327	C	0.077322	0.789923	0.999941
328	C	0.101562	0.748915	0.007831
329	C	0.077058	0.956571	0.005753
330	C	0.023066	0.958385	0.001126
331	H	0.006995	0.815338	0.315401
332	H	0.00362	0.929403	0.001961
333	H	0.137983	0.750726	0.018476
334	C	0.438808	0.747912	0.995811
335	C	0.40952	0.787913	0.001089
336	C	0.355259	0.790141	0.005782
337	C	0.330629	0.747997	0.007949
338	C	0.355337	0.956261	9.1e-05
339	C	0.409107	0.958094	0.992819
340	H	0.428902	0.816978	0.001783
341	H	0.293585	0.747174	0.018651
342	H	0.426717	0.929188	0.31554
343	C	0.105341	0.83125	0.999946
344	C	0.080626	0.872979	0.007831
345	C	0.105253	0.915133	0.005754
346	C	0.159523	0.912899	0.001126
347	C	0.188815	0.872905	0.995804
348	C	0.159117	0.833089	0.992716
349	H	0.178915	0.941957	0.001953
350	H	0.176742	0.804202	0.982072
351	H	0.043566	0.872142	0.018468
352	C	0.327315	0.914935	0.000102
353	C	0.351554	0.873921	0.007967
354	C	0.327058	0.831576	0.005811
355	C	0.273079	0.833373	0.001092
356	C	0.244101	0.872887	0.995844
357	C	0.273979	0.912431	0.992832
358	H	0.253664	0.804363	0.001751
359	H	0.257003	0.940363	0.982215
360	H	0.387969	0.875718	0.018643
361	C	0.494095	0.747887	0.329128
362	C	0.023985	0.787413	0.326015
363	C	0.077322	0.789922	0.333272
364	C	0.101562	0.748917	0.341164
365	C	0.077058	0.956573	0.339086
366	C	0.023066	0.958383	0.334459
367	H	0.006995	0.815337	0.648733
368	H	0.00362	0.929402	0.335293
369	H	0.137983	0.750728	0.351808
370	C	0.43881	0.747914	0.329146
371	C	0.409521	0.787912	0.334422
372	C	0.355259	0.79014	0.339116
373	C	0.330629	0.747999	0.341284
374	C	0.355337	0.95626	0.333425
375	C	0.409109	0.958093	0.326154
376	H	0.428903	0.816977	0.335117
377	H	0.293585	0.747173	0.351984
378	H	0.426718	0.92919	0.648873
379	C	0.105341	0.831249	0.333279
380	C	0.080626	0.872981	0.341164
381	C	0.105253	0.915132	0.339086
382	C	0.159523	0.912897	0.334459
383	C	0.188815	0.872905	0.329139
384	C	0.159117	0.833088	0.326049
385	H	0.178915	0.941955	0.335287
386	H	0.176742	0.804202	0.315405
387	H	0.043566	0.872141	0.351802
388	C	0.327315	0.914933	0.333435
389	C	0.351554	0.87392	0.3413
390	C	0.327058	0.831575	0.339143
391	C	0.273079	0.833371	0.334426
392	C	0.244101	0.87289	0.329177
393	C	0.273979	0.912434	0.326167
394	H	0.253664	0.804361	0.335084
395	H	0.257003	0.940362	0.315549
396	H	0.387966	0.875717	0.351974
397	C	0.494095	0.747889	0.662462
398	C	0.023985	0.787412	0.659347
399	C	0.077322	0.789921	0.666607
400	C	0.101562	0.748915	0.674496
401	C	0.077058	0.956571	0.672418
402	C	0.023066	0.958382	0.667791
403	H	0.006995	0.815336	0.982068
404	H	0.003621	0.929404	0.668625
405	H	0.137983	0.750727	0.685143
406	C	0.438807	0.747913	0.662479
407	C	0.409522	0.787911	0.667754
408	C	0.355259	0.790142	0.672448
409	C	0.330629	0.747998	0.674616
410	C	0.355337	0.956262	0.666757
411	C	0.40911	0.958095	0.659487
412	H	0.4289	0.816979	0.668449
413	H	0.293585	0.747175	0.685316
414	H	0.426719	0.929189	0.982205
415	C	0.105341	0.831251	0.666611
416	C	0.080626	0.87298	0.674496
417	C	0.105254	0.915131	0.672418
418	C	0.159523	0.912899	0.667791
419	C	0.188815	0.872903	0.662472
420	C	0.159117	0.83309	0.659381
421	H	0.178915	0.941954	0.668619
422	H	0.176742	0.804204	0.648736
423	H	0.043566	0.872143	0.685134
424	C	0.327315	0.914935	0.666767
425	C	0.351554	0.873919	0.674632
426	C	0.327058	0.831577	0.672478
427	C	0.273079	0.83337	0.667758
428	C	0.244101	0.872888	0.662509
429	C	0.273979	0.912432	0.6595
430	H	0.253664	0.804363	0.668416
431	H	0.257003	0.940361	0.648883
432	H	0.387966	0.875719	0.68531
433	C	0.994095	0.997887	0.995794
434	C	0.523986	0.037412	0.992679
435	C	0.577322	0.039921	0.999941
436	C	0.601562	0.998914	0.007831
437	C	0.577059	0.206571	0.005753
438	C	0.523068	0.208382	0.001126
439	H	0.506996	0.065335	0.315401
440	H	0.503621	0.179402	0.001961
441	H	0.637985	0.000727	0.018476
442	C	0.93881	0.997912	0.995811
443	C	0.909523	0.03791	0.001089
444	C	0.85526	0.04014	0.005782
445	C	0.830629	0.997997	0.007949
446	C	0.855337	0.20626	9.1e-05
447	C	0.909109	0.208093	0.992819
448	H	0.928901	0.066978	0.001783
449	H	0.793587	0.997175	0.018651
450	H	0.926716	0.179188	0.31554
451	C	0.605343	0.08125	0.999946
452	C	0.580627	0.122979	0.007831
453	C	0.605255	0.165132	0.005754
454	C	0.659523	0.162897	0.001126
455	C	0.688816	0.122904	0.995804
456	C	0.659117	0.083088	0.992716
457	H	0.678917	0.191955	0.001953
458	H	0.676741	0.054202	0.982072
459	H	0.543568	0.122142	0.018468
460	C	0.827316	0.164933	0.000102
461	C	0.851553	0.123919	0.007967
462	C	0.827059	0.081575	0.005811
463	C	0.773078	0.083371	0.001092
464	C	0.744103	0.122888	0.995844
465	C	0.773981	0.162431	0.992832
466	H	0.753664	0.054361	0.001751
467	H	0.757003	0.190361	0.982215
468	H	0.887967	0.125717	0.018643
469	C	0.994097	0.997887	0.329128
470	C	0.523984	0.037412	0.326015
471	C	0.577323	0.039921	0.333272
472	C	0.601563	0.998914	0.341164
473	C	0.57706	0.206572	0.339086
474	C	0.523065	0.208382	0.334459
475	H	0.506997	0.065335	0.648733
476	H	0.503622	0.179402	0.335293
477	H	0.637982	0.000727	0.351808
478	C	0.938809	0.997912	0.329146
479	C	0.909523	0.037911	0.334422
480	C	0.855261	0.04014	0.339116
481	C	0.83063	0.997997	0.341284
482	C	0.855338	0.20626	0.333425
483	C	0.909107	0.208093	0.326154
484	H	0.928902	0.066978	0.335117
485	H	0.793584	0.997174	0.351984
486	H	0.926717	0.179188	0.648873
487	C	0.605343	0.08125	0.333279
488	C	0.580627	0.122979	0.341164
489	C	0.605256	0.165132	0.339086
490	C	0.659524	0.162897	0.334459
491	C	0.688815	0.122904	0.329139
492	C	0.659119	0.083088	0.326049
493	H	0.678917	0.191955	0.335287
494	H	0.676744	0.054202	0.315405
495	H	0.543565	0.122141	0.351802
496	C	0.827313	0.164933	0.333435
497	C	0.851554	0.123919	0.3413
498	C	0.827056	0.081575	0.339143
499	C	0.773079	0.08337	0.334426
500	C	0.744101	0.122887	0.329177
501	C	0.773979	0.162431	0.326167
502	H	0.753664	0.054361	0.335084
503	H	0.757002	0.190361	0.315549
504	H	0.887968	0.125717	0.351974
505	C	0.994094	0.997887	0.662462
506	C	0.523985	0.037412	0.659347
507	C	0.577324	0.039921	0.666607
508	C	0.601564	0.998914	0.674496
509	C	0.577057	0.206571	0.672418
510	C	0.523066	0.208382	0.667791
511	H	0.506993	0.065336	0.982068
512	H	0.503622	0.179402	0.668625
513	H	0.637982	0.000727	0.685143
514	C	0.938809	0.997912	0.662479
515	C	0.90952	0.03791	0.667754
516	C	0.855258	0.04014	0.672448
517	C	0.830631	0.997997	0.674616
518	C	0.855339	0.20626	0.666757
519	C	0.909108	0.208093	0.659487
520	H	0.928902	0.066978	0.668449
521	H	0.793585	0.997172	0.685316
522	H	0.926717	0.179188	0.982205
523	C	0.60534	0.08125	0.666611
524	C	0.580624	0.122979	0.674496
525	C	0.605253	0.165132	0.672418
526	C	0.659525	0.162897	0.667791
527	C	0.688815	0.122904	0.662472
528	C	0.659116	0.083088	0.659381
529	H	0.678914	0.191955	0.668619
530	H	0.676741	0.054202	0.648736
531	H	0.543565	0.122141	0.685134
532	C	0.827314	0.164933	0.666767
533	C	0.851555	0.123919	0.674632
534	C	0.827057	0.081575	0.672478
535	C	0.77308	0.08337	0.667758
536	C	0.744102	0.122887	0.662509
537	C	0.77398	0.162432	0.6595
538	H	0.753665	0.054361	0.668416
539	H	0.757003	0.190361	0.648883
540	H	0.887969	0.125717	0.68531
541	C	0.994095	0.247887	0.995794
542	C	0.523987	0.287412	0.992679
543	C	0.577323	0.289921	0.999941
544	C	0.601563	0.248915	0.007831
545	C	0.57706	0.456572	0.005753
546	C	0.523065	0.458382	0.001126
547	H	0.506997	0.315336	0.315401
548	H	0.503622	0.429404	0.001961
549	H	0.637982	0.250727	0.018476
550	C	0.938807	0.247912	0.995811
551	C	0.909523	0.287911	0.001089
552	C	0.855261	0.290141	0.005782
553	C	0.83063	0.247997	0.007949
554	C	0.855338	0.456259	9.1e-05
555	C	0.90911	0.458092	0.992819
556	H	0.928902	0.316978	0.001783
557	H	0.793584	0.247173	0.018651
558	H	0.926717	0.429189	0.31554
559	C	0.605343	0.33125	0.999946
560	C	0.580628	0.37298	0.007831
561	C	0.605252	0.415131	0.005754
562	C	0.659524	0.412896	0.001126
563	C	0.688817	0.372904	0.995804
564	C	0.659118	0.333088	0.992716
565	H	0.678917	0.441954	0.001953
566	H	0.676742	0.304202	0.982072
567	H	0.543565	0.37214	0.018468
568	C	0.827313	0.414932	0.000102
569	C	0.851554	0.373919	0.007967
570	C	0.827057	0.331575	0.005811
571	C	0.773079	0.333371	0.001092
572	C	0.7441	0.372888	0.995844
573	C	0.773978	0.412432	0.992832
574	H	0.753664	0.304361	0.001751
575	H	0.757004	0.440361	0.982215
576	H	0.887968	0.375716	0.018643
577	C	0.994094	0.247887	0.329128
578	C	0.523985	0.287412	0.326015
579	C	0.577324	0.289921	0.333272
580	C	0.601564	0.248915	0.341164
581	C	0.577057	0.456571	0.339086
582	C	0.523066	0.458381	0.334459
583	H	0.506994	0.315336	0.648733
584	H	0.503623	0.429403	0.335293
585	H	0.637983	0.250727	0.351808
586	C	0.93881	0.247912	0.329146
587	C	0.90952	0.287911	0.334422
588	C	0.855258	0.290141	0.339116
589	C	0.830631	0.247997	0.341284
590	C	0.855339	0.456261	0.333425
591	C	0.909108	0.458094	0.326154
592	H	0.928902	0.316978	0.335117
593	H	0.793585	0.247173	0.351984
594	H	0.926717	0.429188	0.648873
595	C	0.60534	0.33125	0.333279
596	C	0.580625	0.372979	0.341164
597	C	0.605253	0.415133	0.339086
598	C	0.659525	0.412899	0.334459
599	C	0.688815	0.372902	0.329139
600	C	0.659116	0.333088	0.326049
601	H	0.678914	0.441957	0.335287
602	H	0.676741	0.304202	0.315405
603	H	0.543566	0.372142	0.351802
604	C	0.827314	0.414934	0.333435
605	C	0.851555	0.373921	0.3413
606	C	0.827057	0.331575	0.339143
607	C	0.77308	0.333371	0.334426
608	C	0.744102	0.372887	0.329177
609	C	0.77398	0.412432	0.326167
610	H	0.753665	0.304361	0.335084
611	H	0.757003	0.44036	0.315549
612	H	0.887969	0.375718	0.351974
613	C	0.994095	0.247888	0.662462
614	C	0.523986	0.287412	0.659347
615	C	0.577321	0.289922	0.666607
616	C	0.601561	0.248915	0.674496
617	C	0.577058	0.456573	0.672418
618	C	0.523066	0.458383	0.667791
619	H	0.506994	0.315336	0.982068
620	H	0.50362	0.429401	0.668625
621	H	0.637983	0.250727	0.685143
622	C	0.93881	0.247912	0.662479
623	C	0.909521	0.287911	0.667754
624	C	0.855259	0.290141	0.672448
625	C	0.830628	0.247997	0.674616
626	C	0.855336	0.45626	0.666757
627	C	0.909109	0.458093	0.659487
628	H	0.928903	0.316978	0.668449
629	H	0.793586	0.247172	0.685316
630	H	0.926718	0.429187	0.982205
631	C	0.605341	0.33125	0.666611
632	C	0.580625	0.372978	0.674496
633	C	0.605254	0.415132	0.672418
634	C	0.659522	0.412897	0.667791
635	C	0.688816	0.372905	0.662472
636	C	0.659117	0.333088	0.659381
637	H	0.678915	0.441955	0.668619
638	H	0.676742	0.304202	0.648736
639	H	0.543566	0.372141	0.685134
640	C	0.827315	0.414933	0.666767
641	C	0.851556	0.37392	0.674632
642	C	0.827058	0.331575	0.672478
643	C	0.773081	0.333371	0.667758
644	C	0.744103	0.372886	0.662509
645	C	0.773981	0.41243	0.6595
646	H	0.753666	0.304362	0.668416
647	H	0.757004	0.440362	0.648883
648	H	0.88797	0.375717	0.68531
649	C	0.994096	0.497887	0.995794
650	C	0.523984	0.537413	0.992679
651	C	0.577324	0.539922	0.999941
652	C	0.601564	0.498913	0.007831
653	C	0.577057	0.706573	0.005753
654	C	0.523066	0.708384	0.001126
655	H	0.506994	0.565337	0.315401
656	H	0.503623	0.679402	0.001961
657	H	0.637983	0.500729	0.018476
658	C	0.938808	0.497914	0.995811
659	C	0.909521	0.537912	0.001089
660	C	0.855258	0.54014	0.005782
661	C	0.830631	0.497996	0.007949
662	C	0.855339	0.70626	9.1e-05
663	C	0.909107	0.708093	0.992819
664	H	0.928903	0.566977	0.001783
665	H	0.793585	0.497173	0.018651
666	H	0.926718	0.67919	0.31554
667	C	0.605341	0.581249	0.999946
668	C	0.580625	0.622978	0.007831
669	C	0.605253	0.665132	0.005754
670	C	0.659521	0.662898	0.001126
671	C	0.688814	0.622904	0.995804
672	C	0.659118	0.583087	0.992716
673	H	0.678915	0.691956	0.001953
674	H	0.676743	0.554201	0.982072
675	H	0.543566	0.622141	0.018468
676	C	0.827314	0.664933	0.000102
677	C	0.851555	0.62392	0.007967
678	C	0.827057	0.581575	0.005811
679	C	0.77308	0.583371	0.001092
680	C	0.7441	0.622889	0.995844
681	C	0.773979	0.662433	0.992832
682	H	0.753665	0.554361	0.001751
683	H	0.757005	0.690362	0.982215
684	H	0.887969	0.625717	0.018643
685	C	0.994095	0.497889	0.329128
686	C	0.523986	0.537412	0.326015
687	C	0.577321	0.539921	0.333272
688	C	0.601561	0.498916	0.341164
689	C	0.577058	0.706572	0.339086
690	C	0.523066	0.708382	0.334459
691	H	0.506994	0.565336	0.648733
692	H	0.50362	0.679404	0.335293
693	H	0.637983	0.500727	0.351808
694	C	0.93881	0.497913	0.329146
695	C	0.909521	0.537911	0.334422
696	C	0.855259	0.540142	0.339116
697	C	0.830628	0.497998	0.341284
698	C	0.855336	0.706262	0.333425
699	C	0.909109	0.708092	0.326154
700	H	0.928903	0.566979	0.335117
701	H	0.793586	0.497171	0.351984
702	H	0.926718	0.679189	0.648873
703	C	0.605341	0.581251	0.333279
704	C	0.580625	0.62298	0.341164
705	C	0.605254	0.665131	0.339086
706	C	0.659522	0.662896	0.334459
707	C	0.688816	0.622904	0.329139
708	C	0.659117	0.58309	0.326049
709	H	0.678915	0.691954	0.335287
710	H	0.676742	0.554204	0.315405
711	H	0.543566	0.622144	0.351802
712	C	0.827315	0.664932	0.333435
713	C	0.851556	0.623919	0.3413
714	C	0.827058	0.581574	0.339143
715	C	0.773081	0.58337	0.334426
716	C	0.744103	0.622889	0.329177
717	C	0.773981	0.662433	0.326167
718	H	0.753666	0.55436	0.335084
719	H	0.757004	0.690361	0.315549
720	H	0.88797	0.625719	0.351974
721	C	0.994096	0.497888	0.662462
722	C	0.523983	0.537414	0.659347
723	C	0.577322	0.539923	0.666607
724	C	0.601562	0.498914	0.674496
725	C	0.577059	0.70657	0.672418
726	C	0.523067	0.708384	0.667791
727	H	0.506995	0.565338	0.982068
728	H	0.50362	0.679402	0.668625
729	H	0.637984	0.500726	0.685143
730	C	0.938807	0.497912	0.662479
731	C	0.909522	0.537909	0.667754
732	C	0.855259	0.540141	0.672448
733	C	0.830628	0.497997	0.674616
734	C	0.855337	0.706261	0.666757
735	C	0.90911	0.708094	0.659487
736	H	0.9289	0.566978	0.668449
737	H	0.793587	0.497173	0.685316
738	H	0.926719	0.679188	0.982205
739	C	0.605342	0.58125	0.666611
740	C	0.580626	0.622979	0.674496
741	C	0.605255	0.665133	0.672418
742	C	0.659523	0.662898	0.667791
743	C	0.688813	0.622906	0.662472
744	C	0.659118	0.583089	0.659381
745	H	0.678916	0.691956	0.668619
746	H	0.676742	0.554202	0.648736
747	H	0.543567	0.622142	0.685134
748	C	0.827316	0.664934	0.666767
749	C	0.851553	0.623921	0.674632
750	C	0.827059	0.581576	0.672478
751	C	0.773078	0.583372	0.667758
752	C	0.7441	0.622887	0.662509
753	C	0.773978	0.662431	0.6595
754	H	0.753663	0.554362	0.668416
755	H	0.757004	0.690363	0.648883
756	H	0.887967	0.625718	0.68531
757	C	0.994097	0.747888	0.995794
758	C	0.523985	0.787414	0.992679
759	C	0.577321	0.789923	0.999941
760	C	0.601561	0.748915	0.007831
761	C	0.577058	0.956571	0.005753
762	C	0.523067	0.958385	0.001126
763	H	0.506995	0.815338	0.315401
764	H	0.50362	0.929403	0.001961
765	H	0.637983	0.750726	0.018476
766	C	0.938809	0.747912	0.995811
767	C	0.909521	0.787913	0.001089
768	C	0.855259	0.790141	0.005782
769	C	0.830628	0.747997	0.007949
770	C	0.855336	0.956261	9.1e-05
771	C	0.909108	0.958094	0.992819
772	H	0.928903	0.816978	0.001783
773	H	0.793586	0.747174	0.018651
774	H	0.926718	0.929188	0.31554
775	C	0.605341	0.83125	0.999946
776	C	0.580626	0.872979	0.007831
777	C	0.605254	0.915133	0.005754
778	C	0.659522	0.912899	0.001126
779	C	0.688815	0.872905	0.995804
780	C	0.659119	0.833089	0.992716
781	H	0.678915	0.941957	0.001953
782	H	0.676744	0.804202	0.982072
783	H	0.543567	0.872142	0.018468
784	C	0.827315	0.914935	0.000102
785	C	0.851556	0.873921	0.007967
786	C	0.827058	0.831576	0.005811
787	C	0.773081	0.833373	0.001092
788	C	0.744101	0.872887	0.995844
789	C	0.773979	0.912431	0.992832
790	H	0.753666	0.804363	0.001751
791	H	0.757002	0.940363	0.982215
792	H	0.88797	0.875718	0.018643
793	C	0.994096	0.747887	0.329128
794	C	0.523983	0.787413	0.326015
795	C	0.577322	0.789922	0.333272
796	C	0.601562	0.748917	0.341164
797	C	0.577059	0.956573	0.339086
798	C	0.523067	0.958383	0.334459
799	H	0.506995	0.815337	0.648733
800	H	0.503621	0.929402	0.335293
801	H	0.637984	0.750728	0.351808
802	C	0.938808	0.747914	0.329146
803	C	0.909522	0.787912	0.334422
804	C	0.85526	0.79014	0.339116
805	C	0.830629	0.747999	0.341284
806	C	0.855337	0.95626	0.333425
807	C	0.90911	0.958093	0.326154
808	H	0.9289	0.816977	0.335117
809	H	0.793587	0.747173	0.351984
810	H	0.926719	0.92919	0.648873
811	C	0.605342	0.831249	0.333279
812	C	0.580626	0.872981	0.341164
813	C	0.605255	0.915132	0.339086
814	C	0.659523	0.912897	0.334459
815	C	0.688813	0.872905	0.329139
816	C	0.659118	0.833088	0.326049
817	H	0.678916	0.941955	0.335287
818	H	0.676743	0.804202	0.315405
819	H	0.543567	0.872141	0.351802
820	C	0.827316	0.914933	0.333435
821	C	0.851553	0.87392	0.3413
822	C	0.827059	0.831575	0.339143
823	C	0.773078	0.833371	0.334426
824	C	0.7441	0.87289	0.329177
825	C	0.773978	0.912434	0.326167
826	H	0.753663	0.804361	0.335084
827	H	0.757005	0.940362	0.315549
828	H	0.887967	0.875717	0.351974
829	C	0.994096	0.747889	0.662462
830	C	0.523984	0.787412	0.659347
831	C	0.577322	0.789921	0.666607
832	C	0.601563	0.748915	0.674496
833	C	0.57706	0.956571	0.672418
834	C	0.523064	0.958382	0.667791
835	H	0.506996	0.815336	0.982068
836	H	0.503621	0.929404	0.668625
837	H	0.637985	0.750727	0.685143
838	C	0.938808	0.747913	0.662479
839	C	0.909523	0.787911	0.667754
840	C	0.85526	0.790142	0.672448
841	C	0.830629	0.747998	0.674616
842	C	0.855338	0.956262	0.666757
843	C	0.909107	0.958095	0.659487
844	H	0.928901	0.816979	0.668449
845	H	0.793588	0.747175	0.685316
846	H	0.926716	0.929189	0.982205
847	C	0.605343	0.831251	0.666611
848	C	0.580627	0.87298	0.674496
849	C	0.605255	0.915131	0.672418
850	C	0.659524	0.912899	0.667791
851	C	0.688814	0.872903	0.662472
852	C	0.659119	0.83309	0.659381
853	H	0.678917	0.941954	0.668619
854	H	0.676743	0.804204	0.648736
855	H	0.543568	0.872143	0.685134
856	C	0.827317	0.914935	0.666767
857	C	0.851554	0.873919	0.674632
858	C	0.82706	0.831577	0.672478
859	C	0.773079	0.83337	0.667758
860	C	0.744101	0.872888	0.662509
861	C	0.773979	0.912432	0.6595
862	H	0.753664	0.804363	0.668416
863	H	0.757005	0.940361	0.648883
864	H	0.887968	0.875719	0.68531
