data_C432H360N144_2018-02-15_10:45:02
#******************************************
#
# CIF file created by Zeo++
# Zeo++ is an open source package to
# analyze microporous materials
#
#*******************************************

_cell_length_a		45.3683   
_cell_length_b		45.3682   
_cell_length_c		29.1996   
_cell_angle_alpha		90   
_cell_angle_beta		90   
_cell_angle_gamma		120   

_symmetry_space_group_name_H-M		'P1'
_symmetry_Int_Tables_number		1
_symmetry_cell_setting		Monoclinic

loop_
_symmetry_equiv_pos_as_xyz
'+x,+y,+z'

loop_
_atom_site_label
_atom_site_type_symbol
_atom_site_fract_x
_atom_site_fract_y
_atom_site_fract_z
1	C	0.197451	0.381234	0.015189
2	N	0.163768	0.357024	0.0152
3	C	0.153034	0.323072	0.015192
4	N	0.177245	0.313599	0.015202
5	C	0.211196	0.336816	0.015191
6	N	0.22067	0.370501	0.015199
7	C	0.236291	0.327121	0.015306
8	C	0.207146	0.416024	0.015304
9	C	0.118244	0.297976	0.01531
10	H	0.112081	0.273006	0.015687
11	H	0.188337	0.422186	0.015684
12	H	0.261262	0.34593	0.015681
13	H	0.276749	0.173067	0.014675
14	C	0.248002	0.27861	0.34807
15	C	0.230587	0.242844	0.346361
16	C	0.24763	0.223745	0.346269
17	H	0.204534	0.230422	0.345009
18	C	0.283842	0.295406	0.016434
19	C	0.226023	0.186085	0.343786
20	H	0.198853	0.177347	0.341615
21	H	0.229773	0.174657	0.374489
22	H	0.2326	0.176679	0.313306
23	N	0.228845	0.294164	0.34793
24	C	0.255657	0.476245	0.348067
25	C	0.256905	0.03147	0.01662
26	C	0.238862	0.495291	0.016439
27	H	0.212851	0.482524	0.017778
28	C	0.235683	0.048094	0.018868
29	H	0.250447	0.075811	0.018957
30	H	0.220361	0.040158	0.050068
31	H	0.218614	0.040343	0.989381
32	N	0.240104	0.441537	0.347923
33	C	0.058022	0.286266	0.34807
34	C	0.039671	0.30368	0.346358
35	H	0.053301	0.329732	0.344995
36	C	0.038977	0.250426	0.016443
37	H	0.051743	0.23718	0.017779
38	N	0.092732	0.305423	0.34793
39	C	0.197451	0.381234	0.348522
40	N	0.163768	0.357024	0.348533
41	C	0.153034	0.323072	0.348526
42	N	0.177245	0.313599	0.348536
43	C	0.211196	0.336816	0.348522
44	N	0.22067	0.370501	0.348533
45	C	0.236291	0.327121	0.348639
46	C	0.207146	0.416024	0.348635
47	C	0.118244	0.297976	0.348642
48	H	0.112081	0.273006	0.349019
49	H	0.188337	0.422186	0.349016
50	H	0.261262	0.34593	0.349012
51	H	0.276749	0.173067	0.348009
52	C	0.248002	0.27861	0.681401
53	C	0.230587	0.242844	0.679695
54	C	0.24763	0.223745	0.679599
55	H	0.204534	0.230422	0.678342
56	C	0.283842	0.295406	0.349766
57	C	0.226023	0.186085	0.677116
58	H	0.198853	0.177347	0.674949
59	H	0.229773	0.174657	0.707819
60	H	0.2326	0.176679	0.64664
61	N	0.228845	0.294164	0.68126
62	C	0.255657	0.476245	0.681401
63	C	0.256905	0.03147	0.349954
64	C	0.238862	0.495291	0.349772
65	H	0.212851	0.482524	0.351111
66	C	0.235683	0.048094	0.352201
67	H	0.250447	0.075811	0.35229
68	H	0.220361	0.040158	0.3834
69	H	0.218614	0.040343	0.322717
70	N	0.240104	0.441537	0.681257
71	C	0.058022	0.286266	0.681404
72	C	0.039671	0.30368	0.679688
73	H	0.053301	0.329732	0.678329
74	C	0.038977	0.250426	0.349776
75	H	0.051743	0.23718	0.351111
76	N	0.092732	0.305423	0.68126
77	C	0.197451	0.381234	0.681856
78	N	0.163768	0.357024	0.681866
79	C	0.153034	0.323072	0.681856
80	N	0.177245	0.313599	0.681866
81	C	0.211196	0.336816	0.681856
82	N	0.22067	0.370501	0.681863
83	C	0.236291	0.327121	0.681973
84	C	0.207146	0.416024	0.681969
85	C	0.118244	0.297976	0.681976
86	H	0.112081	0.273006	0.682353
87	H	0.188337	0.422186	0.682349
88	H	0.261262	0.34593	0.682346
89	H	0.276749	0.173067	0.681342
90	C	0.248002	0.27861	0.014736
91	C	0.230587	0.242844	0.013026
92	C	0.24763	0.223745	0.012933
93	H	0.204534	0.230422	0.011676
94	C	0.283842	0.295406	0.683099
95	C	0.226023	0.186085	0.01045
96	H	0.198853	0.177347	0.008282
97	H	0.229773	0.174657	0.041154
98	H	0.2326	0.176679	0.97997
99	N	0.228845	0.294164	0.014595
100	C	0.255657	0.476245	0.014734
101	C	0.256905	0.03147	0.683284
102	C	0.238862	0.495291	0.683106
103	H	0.212851	0.482524	0.684442
104	C	0.235683	0.048094	0.685534
105	H	0.250447	0.075811	0.685623
106	H	0.220361	0.040158	0.716733
107	H	0.218614	0.040343	0.656051
108	N	0.240104	0.441537	0.014592
109	C	0.058022	0.286266	0.014737
110	C	0.039671	0.30368	0.013022
111	H	0.053301	0.329732	0.011663
112	C	0.038977	0.250426	0.68311
113	H	0.051743	0.23718	0.684445
114	N	0.092732	0.305423	0.014596
115	C	0.197452	0.881236	0.015189
116	N	0.163767	0.857024	0.0152
117	C	0.153033	0.823071	0.015192
118	N	0.177243	0.813598	0.015202
119	C	0.211197	0.836818	0.015191
120	N	0.220669	0.8705	0.015199
121	C	0.236291	0.827123	0.015306
122	C	0.207146	0.916023	0.015304
123	C	0.118242	0.797976	0.01531
124	H	0.112081	0.773005	0.015687
125	H	0.188339	0.922188	0.015684
126	H	0.261262	0.845929	0.015681
127	H	0.276748	0.673066	0.014675
128	C	0.248001	0.778609	0.34807
129	C	0.230586	0.742845	0.346361
130	C	0.24763	0.723746	0.346269
131	H	0.204534	0.730422	0.345009
132	C	0.283842	0.795405	0.016434
133	C	0.226023	0.686085	0.343786
134	H	0.198852	0.677347	0.341615
135	H	0.229772	0.674657	0.374489
136	H	0.232599	0.676678	0.313306
137	N	0.228844	0.794163	0.34793
138	C	0.255658	0.976247	0.348067
139	C	0.256906	0.53147	0.01662
140	C	0.238862	0.99529	0.016439
141	H	0.212852	0.982526	0.017778
142	C	0.235682	0.548093	0.018868
143	H	0.250446	0.57581	0.018957
144	H	0.22036	0.540157	0.050068
145	H	0.218614	0.540343	0.989381
146	N	0.240104	0.941536	0.347923
147	C	0.058022	0.786268	0.34807
148	C	0.039671	0.803682	0.346358
149	H	0.053301	0.829734	0.344995
150	C	0.038978	0.750427	0.016443
151	H	0.051743	0.737182	0.017779
152	N	0.092732	0.805423	0.34793
153	C	0.197452	0.881236	0.348522
154	N	0.163767	0.857024	0.348533
155	C	0.153033	0.823071	0.348526
156	N	0.177243	0.813598	0.348536
157	C	0.211197	0.836818	0.348522
158	N	0.220669	0.8705	0.348533
159	C	0.236291	0.827123	0.348639
160	C	0.207146	0.916023	0.348635
161	C	0.118242	0.797976	0.348642
162	H	0.112081	0.773005	0.349019
163	H	0.188339	0.922188	0.349016
164	H	0.261262	0.845929	0.349012
165	H	0.276748	0.673066	0.348009
166	C	0.248001	0.778609	0.681401
167	C	0.230586	0.742845	0.679695
168	C	0.24763	0.723746	0.679599
169	H	0.204534	0.730422	0.678342
170	C	0.283842	0.795405	0.349766
171	C	0.226023	0.686085	0.677116
172	H	0.198852	0.677347	0.674949
173	H	0.229772	0.674657	0.707819
174	H	0.232599	0.676678	0.64664
175	N	0.228844	0.794163	0.68126
176	C	0.255658	0.976247	0.681401
177	C	0.256906	0.53147	0.349954
178	C	0.238862	0.99529	0.349772
179	H	0.212852	0.982526	0.351111
180	C	0.235682	0.548093	0.352201
181	H	0.250446	0.57581	0.35229
182	H	0.22036	0.540157	0.3834
183	H	0.218614	0.540343	0.322717
184	N	0.240104	0.941536	0.681257
185	C	0.058022	0.786268	0.681404
186	C	0.039671	0.803682	0.679688
187	H	0.053301	0.829734	0.678329
188	C	0.038978	0.750427	0.349776
189	H	0.051743	0.737182	0.351111
190	N	0.092732	0.805423	0.68126
191	C	0.197452	0.881236	0.681856
192	N	0.163767	0.857024	0.681866
193	C	0.153033	0.823071	0.681856
194	N	0.177243	0.813598	0.681866
195	C	0.211197	0.836818	0.681856
196	N	0.220669	0.8705	0.681863
197	C	0.236291	0.827123	0.681973
198	C	0.207146	0.916023	0.681969
199	C	0.118242	0.797976	0.681976
200	H	0.112081	0.773005	0.682353
201	H	0.188339	0.922188	0.682349
202	H	0.261262	0.845929	0.682346
203	H	0.276748	0.673066	0.681342
204	C	0.248001	0.778609	0.014736
205	C	0.230586	0.742845	0.013026
206	C	0.24763	0.723746	0.012933
207	H	0.204534	0.730422	0.011676
208	C	0.283842	0.795405	0.683099
209	C	0.226023	0.686085	0.01045
210	H	0.198852	0.677347	0.008282
211	H	0.229772	0.674657	0.041154
212	H	0.232599	0.676678	0.97997
213	N	0.228844	0.794163	0.014595
214	C	0.255658	0.976247	0.014734
215	C	0.256906	0.53147	0.683284
216	C	0.238862	0.99529	0.683106
217	H	0.212852	0.982526	0.684442
218	C	0.235682	0.548093	0.685534
219	H	0.250446	0.57581	0.685623
220	H	0.22036	0.540157	0.716733
221	H	0.218614	0.540343	0.656051
222	N	0.240104	0.941536	0.014592
223	C	0.058022	0.786268	0.014737
224	C	0.039671	0.803682	0.013022
225	H	0.053301	0.829734	0.011663
226	C	0.038978	0.750427	0.68311
227	H	0.051743	0.737182	0.684445
228	N	0.092732	0.805423	0.014596
229	C	0.28405	0.240962	0.014906
230	C	0.28405	0.240962	0.348238
231	C	0.28405	0.240962	0.681572
232	C	0.284051	0.740964	0.014906
233	C	0.284051	0.740964	0.348238
234	C	0.284051	0.740964	0.681572
235	C	0.346587	0.146991	0.015033
236	N	0.379443	0.173283	0.015016
237	C	0.387276	0.20645	0.015031
238	N	0.360984	0.213013	0.015018
239	C	0.327819	0.187681	0.015034
240	N	0.321255	0.154825	0.01502
241	C	0.300359	0.193971	0.014852
242	C	0.340297	0.113242	0.014849
243	C	0.421026	0.233909	0.014847
244	H	0.423731	0.257518	0.014671
245	H	0.361202	0.110536	0.014668
246	C	0.301978	0.277363	0.016613
247	H	0.297088	0.321417	0.017768
248	C	0.339825	0.298585	0.018855
249	H	0.352777	0.28382	0.018944
250	H	0.347213	0.313909	0.050053
251	H	0.349141	0.315652	0.989368
252	N	0.303399	0.225397	0.01522
253	C	0.291423	0.494596	0.346355
254	C	0.310523	0.030739	0.346259
255	C	0.293306	0.049942	0.014905
256	H	0.303845	0.480967	0.344995
257	C	0.348182	0.046792	0.343762
258	H	0.356919	0.028359	0.341585
259	H	0.359615	0.061969	0.374465
260	H	0.357583	0.062776	0.313284
261	N	0.30887	0.084856	0.015219
262	C	0.503528	0.286637	0.346262
263	C	0.484326	0.250217	0.014904
264	C	0.502798	0.23229	0.016619
265	C	0.487475	0.308243	0.343762
266	H	0.505907	0.335413	0.341582
267	H	0.472298	0.304502	0.374461
268	H	0.471493	0.301662	0.313282
269	C	0.486173	0.194443	0.018867
270	H	0.458458	0.18149	0.018953
271	H	0.494108	0.187057	0.050069
272	H	0.493926	0.185125	0.989381
273	N	0.449412	0.230868	0.015217
274	C	0.346587	0.146991	0.348365
275	N	0.379443	0.173283	0.348348
276	C	0.387276	0.20645	0.348365
277	N	0.360984	0.213013	0.348351
278	C	0.327819	0.187681	0.348368
279	N	0.321255	0.154825	0.348351
280	C	0.300359	0.193971	0.348187
281	C	0.340297	0.113242	0.34818
282	C	0.421026	0.233909	0.34818
283	H	0.423731	0.257518	0.348005
284	H	0.361202	0.110536	0.348002
285	C	0.301978	0.277363	0.349947
286	H	0.297088	0.321417	0.351101
287	C	0.339825	0.298585	0.352187
288	H	0.352777	0.28382	0.352276
289	H	0.347213	0.313909	0.383386
290	H	0.349141	0.315652	0.322701
291	N	0.303399	0.225397	0.348553
292	C	0.291423	0.494596	0.679688
293	C	0.310523	0.030739	0.679592
294	C	0.293306	0.049942	0.348238
295	H	0.303845	0.480967	0.678325
296	C	0.348182	0.046792	0.677096
297	H	0.356919	0.028359	0.674918
298	H	0.359615	0.061969	0.707798
299	H	0.357583	0.062776	0.646616
300	N	0.30887	0.084856	0.348553
301	C	0.503528	0.286637	0.679592
302	C	0.484326	0.250217	0.348238
303	C	0.502798	0.23229	0.34995
304	C	0.487475	0.308243	0.677096
305	H	0.505907	0.335413	0.674914
306	H	0.472298	0.304502	0.707795
307	H	0.471493	0.301662	0.646616
308	C	0.486173	0.194443	0.352201
309	H	0.458458	0.18149	0.352286
310	H	0.494108	0.187057	0.383403
311	H	0.493926	0.185125	0.322717
312	N	0.449412	0.230868	0.34855
313	C	0.346587	0.146991	0.681699
314	N	0.379443	0.173283	0.681682
315	C	0.387276	0.20645	0.681695
316	N	0.360984	0.213013	0.681685
317	C	0.327819	0.187681	0.681699
318	N	0.321255	0.154825	0.681685
319	C	0.300359	0.193971	0.681517
320	C	0.340297	0.113242	0.681514
321	C	0.421026	0.233909	0.681514
322	H	0.423731	0.257518	0.681336
323	H	0.361202	0.110536	0.681332
324	C	0.301978	0.277363	0.683277
325	H	0.297088	0.321417	0.684435
326	C	0.339825	0.298585	0.685521
327	H	0.352777	0.28382	0.68561
328	H	0.347213	0.313909	0.71672
329	H	0.349141	0.315652	0.656034
330	N	0.303399	0.225397	0.681887
331	C	0.291423	0.494596	0.013022
332	C	0.310523	0.030739	0.012923
333	C	0.293306	0.049942	0.681572
334	H	0.303845	0.480967	0.011659
335	C	0.348182	0.046792	0.01043
336	H	0.356919	0.028359	0.008252
337	H	0.359615	0.061969	0.041131
338	H	0.357583	0.062776	0.97995
339	N	0.30887	0.084856	0.681884
340	C	0.503528	0.286637	0.012926
341	C	0.484326	0.250217	0.681569
342	C	0.502798	0.23229	0.683284
343	C	0.487475	0.308243	0.010426
344	H	0.505907	0.335413	0.008248
345	H	0.472298	0.304502	0.041129
346	H	0.471493	0.301662	0.97995
347	C	0.486173	0.194443	0.685534
348	H	0.458458	0.18149	0.68562
349	H	0.494108	0.187057	0.716733
350	H	0.493926	0.185125	0.656051
351	N	0.449412	0.230868	0.681884
352	C	0.346586	0.646991	0.015033
353	N	0.379442	0.673282	0.015016
354	C	0.387277	0.706451	0.015031
355	N	0.360984	0.713013	0.015018
356	C	0.327817	0.687681	0.015034
357	N	0.321254	0.654825	0.01502
358	C	0.300359	0.693972	0.014852
359	C	0.340296	0.613242	0.014849
360	C	0.421025	0.733909	0.014847
361	H	0.423732	0.75752	0.014671
362	H	0.361201	0.610536	0.014668
363	C	0.301977	0.777362	0.016613
364	H	0.297087	0.821417	0.017768
365	C	0.339825	0.798586	0.018855
366	H	0.352778	0.783822	0.018944
367	H	0.347214	0.813911	0.050053
368	H	0.34914	0.815652	0.989368
369	N	0.303399	0.725397	0.01522
370	C	0.291424	0.994598	0.346355
371	C	0.310522	0.53074	0.346259
372	C	0.293306	0.549943	0.014905
373	H	0.303846	0.980969	0.344995
374	C	0.348182	0.546792	0.343762
375	H	0.356919	0.52836	0.341585
376	H	0.359615	0.561969	0.374465
377	H	0.357583	0.562776	0.313284
378	N	0.30887	0.584855	0.015219
379	C	0.503528	0.786637	0.346262
380	C	0.484325	0.750218	0.014904
381	C	0.502797	0.73229	0.016619
382	C	0.487475	0.808243	0.343762
383	H	0.505908	0.835415	0.341582
384	H	0.472297	0.804501	0.374461
385	H	0.471492	0.801661	0.313282
386	C	0.486174	0.694443	0.018867
387	H	0.458457	0.681491	0.018953
388	H	0.494108	0.687057	0.050069
389	H	0.493926	0.685125	0.989381
390	N	0.449411	0.73087	0.015217
391	C	0.346586	0.646991	0.348365
392	N	0.379442	0.673282	0.348348
393	C	0.387277	0.706451	0.348365
394	N	0.360984	0.713013	0.348351
395	C	0.327817	0.687681	0.348368
396	N	0.321254	0.654825	0.348351
397	C	0.300359	0.693972	0.348187
398	C	0.340296	0.613242	0.34818
399	C	0.421025	0.733909	0.34818
400	H	0.423732	0.75752	0.348005
401	H	0.361201	0.610536	0.348002
402	C	0.301977	0.777362	0.349947
403	H	0.297087	0.821417	0.351101
404	C	0.339825	0.798586	0.352187
405	H	0.352778	0.783822	0.352276
406	H	0.347214	0.813911	0.383386
407	H	0.34914	0.815652	0.322701
408	N	0.303399	0.725397	0.348553
409	C	0.291424	0.994598	0.679688
410	C	0.310522	0.53074	0.679592
411	C	0.293306	0.549943	0.348238
412	H	0.303846	0.980969	0.678325
413	C	0.348182	0.546792	0.677096
414	H	0.356919	0.52836	0.674918
415	H	0.359615	0.561969	0.707798
416	H	0.357583	0.562776	0.646616
417	N	0.30887	0.584855	0.348553
418	C	0.503528	0.786637	0.679592
419	C	0.484325	0.750218	0.348238
420	C	0.502797	0.73229	0.34995
421	C	0.487475	0.808243	0.677096
422	H	0.505908	0.835415	0.674914
423	H	0.472297	0.804501	0.707795
424	H	0.471492	0.801661	0.646616
425	C	0.486174	0.694443	0.352201
426	H	0.458457	0.681491	0.352286
427	H	0.494108	0.687057	0.383403
428	H	0.493926	0.685125	0.322717
429	N	0.449411	0.73087	0.34855
430	C	0.346586	0.646991	0.681699
431	N	0.379442	0.673282	0.681682
432	C	0.387277	0.706451	0.681695
433	N	0.360984	0.713013	0.681685
434	C	0.327817	0.687681	0.681699
435	N	0.321254	0.654825	0.681685
436	C	0.300359	0.693972	0.681517
437	C	0.340296	0.613242	0.681514
438	C	0.421025	0.733909	0.681514
439	H	0.423732	0.75752	0.681336
440	H	0.361201	0.610536	0.681332
441	C	0.301977	0.777362	0.683277
442	H	0.297087	0.821417	0.684435
443	C	0.339825	0.798586	0.685521
444	H	0.352778	0.783822	0.68561
445	H	0.347214	0.813911	0.71672
446	H	0.34914	0.815652	0.656034
447	N	0.303399	0.725397	0.681887
448	C	0.291424	0.994598	0.013022
449	C	0.310522	0.53074	0.012923
450	C	0.293306	0.549943	0.681572
451	H	0.303846	0.980969	0.011659
452	C	0.348182	0.546792	0.01043
453	H	0.356919	0.52836	0.008252
454	H	0.359615	0.561969	0.041131
455	H	0.357583	0.562776	0.97995
456	N	0.30887	0.584855	0.681884
457	C	0.503528	0.786637	0.012926
458	C	0.484325	0.750218	0.681569
459	C	0.502797	0.73229	0.683284
460	C	0.487475	0.808243	0.010426
461	H	0.505908	0.835415	0.008248
462	H	0.472297	0.804501	0.041129
463	H	0.471492	0.801661	0.97995
464	C	0.486174	0.694443	0.685534
465	H	0.458457	0.681491	0.68562
466	H	0.494108	0.687057	0.716733
467	H	0.493926	0.685125	0.656051
468	N	0.449411	0.73087	0.681884
469	C	0.618243	0.297976	0.01531
470	H	0.612081	0.273006	0.015687
471	C	0.558021	0.286266	0.34807
472	C	0.53967	0.30368	0.346358
473	H	0.5533	0.329732	0.344995
474	C	0.538977	0.250426	0.016443
475	H	0.551743	0.23718	0.017779
476	N	0.592732	0.305423	0.34793
477	C	0.618243	0.297976	0.348642
478	H	0.612081	0.273006	0.349019
479	C	0.558021	0.286266	0.681404
480	C	0.53967	0.30368	0.679688
481	H	0.5533	0.329732	0.678329
482	C	0.538977	0.250426	0.349776
483	H	0.551743	0.23718	0.351111
484	N	0.592732	0.305423	0.68126
485	C	0.618243	0.297976	0.681976
486	H	0.612081	0.273006	0.682353
487	C	0.558021	0.286266	0.014737
488	C	0.53967	0.30368	0.013022
489	H	0.5533	0.329732	0.011663
490	C	0.538977	0.250426	0.68311
491	H	0.551743	0.23718	0.684445
492	N	0.592732	0.305423	0.014596
493	C	0.618243	0.797976	0.01531
494	H	0.61208	0.773005	0.015687
495	C	0.558022	0.786268	0.34807
496	C	0.539671	0.803682	0.346358
497	H	0.553301	0.829734	0.344995
498	C	0.538977	0.750427	0.016443
499	H	0.551743	0.737182	0.017779
500	N	0.592732	0.805423	0.34793
501	C	0.618243	0.797976	0.348642
502	H	0.61208	0.773005	0.349019
503	C	0.558022	0.786268	0.681404
504	C	0.539671	0.803682	0.679688
505	H	0.553301	0.829734	0.678329
506	C	0.538977	0.750427	0.349776
507	H	0.551743	0.737182	0.351111
508	N	0.592732	0.805423	0.68126
509	C	0.618243	0.797976	0.681976
510	H	0.61208	0.773005	0.682353
511	C	0.558022	0.786268	0.014737
512	C	0.539671	0.803682	0.013022
513	H	0.553301	0.829734	0.011663
514	C	0.538977	0.750427	0.68311
515	H	0.551743	0.737182	0.684445
516	N	0.592732	0.805423	0.014596
517	C	0.697451	0.381234	0.015189
518	N	0.663767	0.357024	0.0152
519	C	0.653033	0.323072	0.015192
520	N	0.677244	0.313599	0.015202
521	C	0.711196	0.336816	0.015191
522	N	0.72067	0.370501	0.015199
523	C	0.73629	0.327121	0.015306
524	C	0.707146	0.416024	0.015304
525	H	0.688338	0.422186	0.015684
526	H	0.761263	0.34593	0.015681
527	C	0.846586	0.146991	0.015033
528	N	0.879442	0.173283	0.015016
529	C	0.887277	0.20645	0.015031
530	N	0.860985	0.213013	0.015018
531	C	0.827817	0.187681	0.015034
532	N	0.821253	0.154825	0.01502
533	C	0.800357	0.193971	0.014852
534	C	0.840296	0.113242	0.014849
535	C	0.921024	0.233909	0.014847
536	H	0.92373	0.257518	0.014671
537	H	0.861201	0.110536	0.014668
538	H	0.776749	0.173067	0.014675
539	C	0.748001	0.27861	0.34807
540	C	0.730585	0.242844	0.346361
541	C	0.747629	0.223745	0.346269
542	C	0.78405	0.240962	0.014906
543	C	0.801977	0.277363	0.016613
544	H	0.704534	0.230422	0.345009
545	C	0.783843	0.295406	0.016434
546	H	0.797087	0.321417	0.017768
547	C	0.726022	0.186085	0.343786
548	H	0.698853	0.177347	0.341615
549	H	0.729772	0.174657	0.374489
550	H	0.7326	0.176679	0.313306
551	C	0.839825	0.298585	0.018855
552	H	0.852776	0.28382	0.018944
553	H	0.847214	0.313909	0.050053
554	H	0.849141	0.315652	0.989368
555	N	0.728844	0.294164	0.34793
556	N	0.803399	0.225397	0.01522
557	C	0.755657	0.476245	0.348067
558	C	0.791422	0.494596	0.346355
559	C	0.810522	0.030739	0.346259
560	C	0.793305	0.049942	0.014905
561	C	0.756907	0.03147	0.01662
562	H	0.803845	0.480967	0.344995
563	C	0.738862	0.495291	0.016439
564	H	0.712851	0.482524	0.017778
565	C	0.848181	0.046792	0.343762
566	H	0.85692	0.028359	0.341585
567	H	0.859616	0.061969	0.374465
568	H	0.857584	0.062776	0.313284
569	C	0.735682	0.048094	0.018868
570	H	0.750447	0.075811	0.018957
571	H	0.720361	0.040158	0.050068
572	H	0.718613	0.040343	0.989381
573	N	0.740104	0.441537	0.347923
574	N	0.808871	0.084856	0.015219
575	C	0.003527	0.286637	0.346262
576	C	0.984325	0.250217	0.014904
577	C	0.002797	0.23229	0.016619
578	C	0.987474	0.308243	0.343762
579	H	0.005908	0.335413	0.341582
580	H	0.972297	0.304502	0.374461
581	H	0.971492	0.301662	0.313282
582	C	0.986172	0.194443	0.018867
583	H	0.958457	0.18149	0.018953
584	H	0.994109	0.187057	0.050069
585	H	0.993925	0.185125	0.989381
586	N	0.94941	0.230868	0.015217
587	C	0.697451	0.381234	0.348522
588	N	0.663767	0.357024	0.348533
589	C	0.653033	0.323072	0.348526
590	N	0.677244	0.313599	0.348536
591	C	0.711196	0.336816	0.348522
592	N	0.72067	0.370501	0.348533
593	C	0.73629	0.327121	0.348639
594	C	0.707146	0.416024	0.348635
595	H	0.688338	0.422186	0.349016
596	H	0.761263	0.34593	0.349012
597	C	0.846586	0.146991	0.348365
598	N	0.879442	0.173283	0.348348
599	C	0.887277	0.20645	0.348365
600	N	0.860985	0.213013	0.348351
601	C	0.827817	0.187681	0.348368
602	N	0.821253	0.154825	0.348351
603	C	0.800357	0.193971	0.348187
604	C	0.840296	0.113242	0.34818
605	C	0.921024	0.233909	0.34818
606	H	0.92373	0.257518	0.348005
607	H	0.861201	0.110536	0.348002
608	H	0.776749	0.173067	0.348009
609	C	0.748001	0.27861	0.681401
610	C	0.730585	0.242844	0.679695
611	C	0.747629	0.223745	0.679599
612	C	0.78405	0.240962	0.348238
613	C	0.801977	0.277363	0.349947
614	H	0.704534	0.230422	0.678342
615	C	0.783843	0.295406	0.349766
616	H	0.797087	0.321417	0.351101
617	C	0.726022	0.186085	0.677116
618	H	0.698853	0.177347	0.674949
619	H	0.729772	0.174657	0.707819
620	H	0.7326	0.176679	0.64664
621	C	0.839825	0.298585	0.352187
622	H	0.852776	0.28382	0.352276
623	H	0.847214	0.313909	0.383386
624	H	0.849141	0.315652	0.322701
625	N	0.728844	0.294164	0.68126
626	N	0.803399	0.225397	0.348553
627	C	0.755657	0.476245	0.681401
628	C	0.791422	0.494596	0.679688
629	C	0.810522	0.030739	0.679592
630	C	0.793305	0.049942	0.348238
631	C	0.756907	0.03147	0.349954
632	H	0.803845	0.480967	0.678325
633	C	0.738862	0.495291	0.349772
634	H	0.712851	0.482524	0.351111
635	C	0.848181	0.046792	0.677096
636	H	0.85692	0.028359	0.674918
637	H	0.859616	0.061969	0.707798
638	H	0.857584	0.062776	0.646616
639	C	0.735682	0.048094	0.352201
640	H	0.750447	0.075811	0.35229
641	H	0.720361	0.040158	0.3834
642	H	0.718613	0.040343	0.322717
643	N	0.740104	0.441537	0.681257
644	N	0.808871	0.084856	0.348553
645	C	0.003527	0.286637	0.679592
646	C	0.984325	0.250217	0.348238
647	C	0.002797	0.23229	0.34995
648	C	0.987474	0.308243	0.677096
649	H	0.005908	0.335413	0.674914
650	H	0.972297	0.304502	0.707795
651	H	0.971492	0.301662	0.646616
652	C	0.986172	0.194443	0.352201
653	H	0.958457	0.18149	0.352286
654	H	0.994109	0.187057	0.383403
655	H	0.993925	0.185125	0.322717
656	N	0.94941	0.230868	0.34855
657	C	0.697451	0.381234	0.681856
658	N	0.663767	0.357024	0.681866
659	C	0.653033	0.323072	0.681856
660	N	0.677244	0.313599	0.681866
661	C	0.711196	0.336816	0.681856
662	N	0.72067	0.370501	0.681863
663	C	0.73629	0.327121	0.681973
664	C	0.707146	0.416024	0.681969
665	H	0.688338	0.422186	0.682349
666	H	0.761263	0.34593	0.682346
667	C	0.846586	0.146991	0.681699
668	N	0.879442	0.173283	0.681682
669	C	0.887277	0.20645	0.681695
670	N	0.860985	0.213013	0.681685
671	C	0.827817	0.187681	0.681699
672	N	0.821253	0.154825	0.681685
673	C	0.800357	0.193971	0.681517
674	C	0.840296	0.113242	0.681514
675	C	0.921024	0.233909	0.681514
676	H	0.92373	0.257518	0.681336
677	H	0.861201	0.110536	0.681332
678	H	0.776749	0.173067	0.681342
679	C	0.748001	0.27861	0.014736
680	C	0.730585	0.242844	0.013026
681	C	0.747629	0.223745	0.012933
682	C	0.78405	0.240962	0.681572
683	C	0.801977	0.277363	0.683277
684	H	0.704534	0.230422	0.011676
685	C	0.783843	0.295406	0.683099
686	H	0.797087	0.321417	0.684435
687	C	0.726022	0.186085	0.01045
688	H	0.698853	0.177347	0.008282
689	H	0.729772	0.174657	0.041154
690	H	0.7326	0.176679	0.97997
691	C	0.839825	0.298585	0.685521
692	H	0.852776	0.28382	0.68561
693	H	0.847214	0.313909	0.71672
694	H	0.849141	0.315652	0.656034
695	N	0.728844	0.294164	0.014595
696	N	0.803399	0.225397	0.681887
697	C	0.755657	0.476245	0.014734
698	C	0.791422	0.494596	0.013022
699	C	0.810522	0.030739	0.012923
700	C	0.793305	0.049942	0.681572
701	C	0.756907	0.03147	0.683284
702	H	0.803845	0.480967	0.011659
703	C	0.738862	0.495291	0.683106
704	H	0.712851	0.482524	0.684442
705	C	0.848181	0.046792	0.01043
706	H	0.85692	0.028359	0.008252
707	H	0.859616	0.061969	0.041131
708	H	0.857584	0.062776	0.97995
709	C	0.735682	0.048094	0.685534
710	H	0.750447	0.075811	0.685623
711	H	0.720361	0.040158	0.716733
712	H	0.718613	0.040343	0.656051
713	N	0.740104	0.441537	0.014592
714	N	0.808871	0.084856	0.681884
715	C	0.003527	0.286637	0.012926
716	C	0.984325	0.250217	0.681569
717	C	0.002797	0.23229	0.683284
718	C	0.987474	0.308243	0.010426
719	H	0.005908	0.335413	0.008248
720	H	0.972297	0.304502	0.041129
721	H	0.971492	0.301662	0.97995
722	C	0.986172	0.194443	0.685534
723	H	0.958457	0.18149	0.68562
724	H	0.994109	0.187057	0.716733
725	H	0.993925	0.185125	0.656051
726	N	0.94941	0.230868	0.681884
727	C	0.69745	0.881236	0.015189
728	N	0.663768	0.857024	0.0152
729	C	0.653031	0.823071	0.015192
730	N	0.677245	0.813598	0.015202
731	C	0.711196	0.836818	0.015191
732	N	0.720669	0.8705	0.015199
733	C	0.73629	0.827123	0.015306
734	C	0.707145	0.916023	0.015304
735	H	0.688337	0.922188	0.015684
736	H	0.761262	0.845929	0.015681
737	C	0.846587	0.646991	0.015033
738	N	0.87944	0.673282	0.015016
739	C	0.887276	0.706451	0.015031
740	N	0.860983	0.713013	0.015018
741	C	0.827816	0.687681	0.015034
742	N	0.821254	0.654825	0.01502
743	C	0.800359	0.693972	0.014852
744	C	0.840297	0.613242	0.014849
745	C	0.921025	0.733909	0.014847
746	H	0.923732	0.75752	0.014671
747	H	0.8612	0.610536	0.014668
748	H	0.776747	0.673066	0.014675
749	C	0.748001	0.778609	0.34807
750	C	0.730586	0.742845	0.346361
751	C	0.74763	0.723746	0.346269
752	C	0.78405	0.740964	0.014906
753	C	0.801978	0.777362	0.016613
754	H	0.704533	0.730422	0.345009
755	C	0.783841	0.795405	0.016434
756	H	0.797087	0.821417	0.017768
757	C	0.726023	0.686085	0.343786
758	H	0.698852	0.677347	0.341615
759	H	0.729771	0.674657	0.374489
760	H	0.732598	0.676678	0.313306
761	C	0.839825	0.798586	0.018855
762	H	0.852778	0.783822	0.018944
763	H	0.847214	0.813911	0.050053
764	H	0.84914	0.815652	0.989368
765	N	0.728843	0.794163	0.34793
766	N	0.803398	0.725397	0.01522
767	C	0.755657	0.976247	0.348067
768	C	0.791424	0.994598	0.346355
769	C	0.810521	0.53074	0.346259
770	C	0.793304	0.549943	0.014905
771	C	0.756906	0.53147	0.01662
772	H	0.803845	0.980969	0.344995
773	C	0.738861	0.99529	0.016439
774	H	0.712851	0.982526	0.017778
775	C	0.84818	0.546792	0.343762
776	H	0.856919	0.52836	0.341585
777	H	0.859615	0.561969	0.374465
778	H	0.857583	0.562776	0.313284
779	C	0.735681	0.548093	0.018868
780	H	0.750445	0.57581	0.018957
781	H	0.720359	0.540157	0.050068
782	H	0.718614	0.540343	0.989381
783	N	0.740103	0.941536	0.347923
784	N	0.808869	0.584855	0.015219
785	C	0.003528	0.786637	0.346262
786	C	0.984324	0.750218	0.014904
787	C	0.002796	0.73229	0.016619
788	C	0.987475	0.808243	0.343762
789	H	0.005908	0.835415	0.341582
790	H	0.972298	0.804501	0.374461
791	H	0.971492	0.801661	0.313282
792	C	0.986174	0.694443	0.018867
793	H	0.958456	0.681491	0.018953
794	H	0.994108	0.687057	0.050069
795	H	0.993926	0.685125	0.989381
796	N	0.94941	0.73087	0.015217
797	C	0.69745	0.881236	0.348522
798	N	0.663768	0.857024	0.348533
799	C	0.653031	0.823071	0.348526
800	N	0.677245	0.813598	0.348536
801	C	0.711196	0.836818	0.348522
802	N	0.720669	0.8705	0.348533
803	C	0.73629	0.827123	0.348639
804	C	0.707145	0.916023	0.348635
805	H	0.688337	0.922188	0.349016
806	H	0.761262	0.845929	0.349012
807	C	0.846587	0.646991	0.348365
808	N	0.87944	0.673282	0.348348
809	C	0.887276	0.706451	0.348365
810	N	0.860983	0.713013	0.348351
811	C	0.827816	0.687681	0.348368
812	N	0.821254	0.654825	0.348351
813	C	0.800359	0.693972	0.348187
814	C	0.840297	0.613242	0.34818
815	C	0.921025	0.733909	0.34818
816	H	0.923732	0.75752	0.348005
817	H	0.8612	0.610536	0.348002
818	H	0.776747	0.673066	0.348009
819	C	0.748001	0.778609	0.681401
820	C	0.730586	0.742845	0.679695
821	C	0.74763	0.723746	0.679599
822	C	0.78405	0.740964	0.348238
823	C	0.801978	0.777362	0.349947
824	H	0.704533	0.730422	0.678342
825	C	0.783841	0.795405	0.349766
826	H	0.797087	0.821417	0.351101
827	C	0.726023	0.686085	0.677116
828	H	0.698852	0.677347	0.674949
829	H	0.729771	0.674657	0.707819
830	H	0.732598	0.676678	0.64664
831	C	0.839825	0.798586	0.352187
832	H	0.852778	0.783822	0.352276
833	H	0.847214	0.813911	0.383386
834	H	0.84914	0.815652	0.322701
835	N	0.728843	0.794163	0.68126
836	N	0.803398	0.725397	0.348553
837	C	0.755657	0.976247	0.681401
838	C	0.791424	0.994598	0.679688
839	C	0.810521	0.53074	0.679592
840	C	0.793304	0.549943	0.348238
841	C	0.756906	0.53147	0.349954
842	H	0.803845	0.980969	0.678325
843	C	0.738861	0.99529	0.349772
844	H	0.712851	0.982526	0.351111
845	C	0.84818	0.546792	0.677096
846	H	0.856919	0.52836	0.674918
847	H	0.859615	0.561969	0.707798
848	H	0.857583	0.562776	0.646616
849	C	0.735681	0.548093	0.352201
850	H	0.750445	0.57581	0.35229
851	H	0.720359	0.540157	0.3834
852	H	0.718614	0.540343	0.322717
853	N	0.740103	0.941536	0.681257
854	N	0.808869	0.584855	0.348553
855	C	0.003528	0.786637	0.679592
856	C	0.984324	0.750218	0.348238
857	C	0.002796	0.73229	0.34995
858	C	0.987475	0.808243	0.677096
859	H	0.005908	0.835415	0.674914
860	H	0.972298	0.804501	0.707795
861	H	0.971492	0.801661	0.646616
862	C	0.986174	0.694443	0.352201
863	H	0.958456	0.681491	0.352286
864	H	0.994108	0.687057	0.383403
865	H	0.993926	0.685125	0.322717
866	N	0.94941	0.73087	0.34855
867	C	0.69745	0.881236	0.681856
868	N	0.663768	0.857024	0.681866
869	C	0.653031	0.823071	0.681856
870	N	0.677245	0.813598	0.681866
871	C	0.711196	0.836818	0.681856
872	N	0.720669	0.8705	0.681863
873	C	0.73629	0.827123	0.681973
874	C	0.707145	0.916023	0.681969
875	H	0.688337	0.922188	0.682349
876	H	0.761262	0.845929	0.682346
877	C	0.846587	0.646991	0.681699
878	N	0.87944	0.673282	0.681682
879	C	0.887276	0.706451	0.681695
880	N	0.860983	0.713013	0.681685
881	C	0.827816	0.687681	0.681699
882	N	0.821254	0.654825	0.681685
883	C	0.800359	0.693972	0.681517
884	C	0.840297	0.613242	0.681514
885	C	0.921025	0.733909	0.681514
886	H	0.923732	0.75752	0.681336
887	H	0.8612	0.610536	0.681332
888	H	0.776747	0.673066	0.681342
889	C	0.748001	0.778609	0.014736
890	C	0.730586	0.742845	0.013026
891	C	0.74763	0.723746	0.012933
892	C	0.78405	0.740964	0.681572
893	C	0.801978	0.777362	0.683277
894	H	0.704533	0.730422	0.011676
895	C	0.783841	0.795405	0.683099
896	H	0.797087	0.821417	0.684435
897	C	0.726023	0.686085	0.01045
898	H	0.698852	0.677347	0.008282
899	H	0.729771	0.674657	0.041154
900	H	0.732598	0.676678	0.97997
901	C	0.839825	0.798586	0.685521
902	H	0.852778	0.783822	0.68561
903	H	0.847214	0.813911	0.71672
904	H	0.84914	0.815652	0.656034
905	N	0.728843	0.794163	0.014595
906	N	0.803398	0.725397	0.681887
907	C	0.755657	0.976247	0.014734
908	C	0.791424	0.994598	0.013022
909	C	0.810521	0.53074	0.012923
910	C	0.793304	0.549943	0.681572
911	C	0.756906	0.53147	0.683284
912	H	0.803845	0.980969	0.011659
913	C	0.738861	0.99529	0.683106
914	H	0.712851	0.982526	0.684442
915	C	0.84818	0.546792	0.01043
916	H	0.856919	0.52836	0.008252
917	H	0.859615	0.561969	0.041131
918	H	0.857583	0.562776	0.97995
919	C	0.735681	0.548093	0.685534
920	H	0.750445	0.57581	0.685623
921	H	0.720359	0.540157	0.716733
922	H	0.718614	0.540343	0.656051
923	N	0.740103	0.941536	0.014592
924	N	0.808869	0.584855	0.681884
925	C	0.003528	0.786637	0.012926
926	C	0.984324	0.750218	0.681569
927	C	0.002796	0.73229	0.683284
928	C	0.987475	0.808243	0.010426
929	H	0.005908	0.835415	0.008248
930	H	0.972298	0.804501	0.041129
931	H	0.971492	0.801661	0.97995
932	C	0.986174	0.694443	0.685534
933	H	0.958456	0.681491	0.68562
934	H	0.994108	0.687057	0.716733
935	H	0.993926	0.685125	0.656051
936	N	0.94941	0.73087	0.681884
