data_C432H360N144_2018-02-15_10:45:27
#******************************************
#
# CIF file created by Zeo++
# Zeo++ is an open source package to
# analyze microporous materials
#
#*******************************************

_cell_length_a		45.2025   
_cell_length_b		45.2024   
_cell_length_c		29.6182   
_cell_angle_alpha		90   
_cell_angle_beta		90   
_cell_angle_gamma		120   

_symmetry_space_group_name_H-M		'P1'
_symmetry_Int_Tables_number		1
_symmetry_cell_setting		Monoclinic

loop_
_symmetry_equiv_pos_as_xyz
'+x,+y,+z'

loop_
_atom_site_label
_atom_site_type_symbol
_atom_site_fract_x
_atom_site_fract_y
_atom_site_fract_z
1	C	0.14142	0.31983	0.007534
2	N	0.107061	0.298918	0.007514
3	C	0.046648	0.282569	0.340267
4	C	0.022246	0.293214	0.337429
5	H	0.030923	0.318877	0.334823
6	C	0.034169	0.247199	0.010279
7	H	0.051484	0.23895	0.012579
8	C	0.081972	0.307052	0.339791
9	H	0.089154	0.33241	0.338052
10	C	0.14142	0.31983	0.340868
11	N	0.107061	0.298918	0.340848
12	C	0.046648	0.282569	0.673599
13	C	0.022246	0.293214	0.670763
14	H	0.030923	0.318877	0.668157
15	C	0.034169	0.247199	0.343613
16	H	0.051484	0.23895	0.345912
17	C	0.081972	0.307052	0.673123
18	H	0.089154	0.33241	0.671385
19	C	0.14142	0.31983	0.6742
20	N	0.107061	0.298918	0.67418
21	C	0.046648	0.282569	0.006933
22	C	0.022246	0.293214	0.004096
23	H	0.030923	0.318877	0.001489
24	C	0.034169	0.247199	0.676945
25	H	0.051484	0.23895	0.679245
26	C	0.081972	0.307052	0.006457
27	H	0.089154	0.33241	0.00472
28	C	0.141421	0.819831	0.007534
29	N	0.10706	0.798917	0.007514
30	C	0.046649	0.782571	0.340267
31	C	0.022246	0.793213	0.337429
32	H	0.030922	0.818876	0.334823
33	C	0.034168	0.747199	0.010279
34	H	0.051483	0.73895	0.012579
35	C	0.081972	0.807051	0.339791
36	H	0.089153	0.832409	0.338052
37	C	0.141421	0.819831	0.340868
38	N	0.10706	0.798917	0.340848
39	C	0.046649	0.782571	0.673599
40	C	0.022246	0.793213	0.670763
41	H	0.030922	0.818876	0.668157
42	C	0.034168	0.747199	0.343613
43	H	0.051483	0.73895	0.345912
44	C	0.081972	0.807051	0.673123
45	H	0.089153	0.832409	0.671385
46	C	0.141421	0.819831	0.6742
47	N	0.10706	0.798917	0.67418
48	C	0.046649	0.782571	0.006933
49	C	0.022246	0.793213	0.004096
50	H	0.030922	0.818876	0.001489
51	C	0.034168	0.747199	0.676945
52	H	0.051483	0.73895	0.679245
53	C	0.081972	0.807051	0.006457
54	H	0.089153	0.832409	0.00472
55	H	0.011169	0.182426	0.01819
56	H	0.011169	0.182426	0.351524
57	H	0.011169	0.182426	0.684856
58	H	0.011169	0.682427	0.01819
59	H	0.011169	0.682427	0.351524
60	H	0.011169	0.682427	0.684856
61	N	0.16156	0.305399	0.007537
62	C	0.196284	0.324813	0.007531
63	N	0.210714	0.359384	0.007537
64	C	0.1913	0.374693	0.007534
65	N	0.156729	0.354553	0.007541
66	N	0.204748	0.409053	0.007515
67	N	0.217196	0.311366	0.007508
68	C	0.233543	0.267301	0.34026
69	C	0.2229	0.232255	0.337424
70	H	0.197239	0.215271	0.334818
71	C	0.230833	0.181961	0.333301
72	H	0.20304	0.168229	0.329979
73	C	0.209062	0.278143	0.339781
74	H	0.183704	0.259967	0.338046
75	C	0.225922	0.481946	0.010285
76	H	0.200357	0.464629	0.012586
77	C	0.20994	0.026922	0.015655
78	H	0.214429	0.042195	0.046109
79	H	0.184149	0.004946	0.018207
80	H	0.210332	0.041686	0.986275
81	N	0.16156	0.305399	0.340872
82	C	0.196284	0.324813	0.340865
83	N	0.210714	0.359384	0.340872
84	C	0.1913	0.374693	0.340868
85	N	0.156729	0.354553	0.340875
86	N	0.204748	0.409053	0.340848
87	N	0.217196	0.311366	0.340841
88	C	0.233543	0.267301	0.673593
89	C	0.2229	0.232255	0.670757
90	H	0.197239	0.215271	0.66815
91	C	0.230833	0.181961	0.666634
92	H	0.20304	0.168229	0.663312
93	C	0.209062	0.278143	0.673113
94	H	0.183704	0.259967	0.671381
95	C	0.225922	0.481946	0.343616
96	H	0.200357	0.464629	0.345919
97	C	0.20994	0.026922	0.348988
98	H	0.214429	0.042195	0.379442
99	H	0.184149	0.004946	0.351541
100	H	0.210332	0.041686	0.319611
101	N	0.16156	0.305399	0.674204
102	C	0.196284	0.324813	0.674197
103	N	0.210714	0.359384	0.674204
104	C	0.1913	0.374693	0.6742
105	N	0.156729	0.354553	0.674207
106	N	0.204748	0.409053	0.67418
107	N	0.217196	0.311366	0.674173
108	C	0.233543	0.267301	0.006926
109	C	0.2229	0.232255	0.004089
110	H	0.197239	0.215271	0.001486
111	C	0.230833	0.181961	0.999966
112	H	0.20304	0.168229	0.996644
113	C	0.209062	0.278143	0.006448
114	H	0.183704	0.259967	0.004713
115	C	0.225922	0.481946	0.676952
116	H	0.200357	0.464629	0.679251
117	C	0.20994	0.026922	0.68232
118	H	0.214429	0.042195	0.712775
119	H	0.184149	0.004946	0.684873
120	H	0.210332	0.041686	0.652943
121	N	0.16156	0.805401	0.007537
122	C	0.196284	0.824815	0.007531
123	N	0.210715	0.859385	0.007537
124	C	0.1913	0.874694	0.007534
125	N	0.156729	0.854555	0.007541
126	N	0.204747	0.909052	0.007515
127	N	0.217196	0.811368	0.007508
128	C	0.233544	0.767303	0.34026
129	C	0.2229	0.732255	0.337424
130	H	0.197238	0.71527	0.334818
131	C	0.230833	0.681962	0.333301
132	H	0.203039	0.668229	0.329979
133	C	0.209062	0.778144	0.339781
134	H	0.183705	0.759969	0.338046
135	C	0.225922	0.981945	0.010285
136	H	0.200356	0.964631	0.012586
137	C	0.20994	0.526924	0.015655
138	H	0.214429	0.542194	0.046109
139	H	0.184149	0.504945	0.018207
140	H	0.210332	0.541686	0.986275
141	N	0.16156	0.805401	0.340872
142	C	0.196284	0.824815	0.340865
143	N	0.210715	0.859385	0.340872
144	C	0.1913	0.874694	0.340868
145	N	0.156729	0.854555	0.340875
146	N	0.204747	0.909052	0.340848
147	N	0.217196	0.811368	0.340841
148	C	0.233544	0.767303	0.673593
149	C	0.2229	0.732255	0.670757
150	H	0.197238	0.71527	0.66815
151	C	0.230833	0.681962	0.666634
152	H	0.203039	0.668229	0.663312
153	C	0.209062	0.778144	0.673113
154	H	0.183705	0.759969	0.671381
155	C	0.225922	0.981945	0.343616
156	H	0.200356	0.964631	0.345919
157	C	0.20994	0.526924	0.348988
158	H	0.214429	0.542194	0.379442
159	H	0.184149	0.504945	0.351541
160	H	0.210332	0.541686	0.319611
161	N	0.16156	0.805401	0.674204
162	C	0.196284	0.824815	0.674197
163	N	0.210715	0.859385	0.674204
164	C	0.1913	0.874694	0.6742
165	N	0.156729	0.854555	0.674207
166	N	0.204747	0.909052	0.67418
167	N	0.217196	0.811368	0.674173
168	C	0.233544	0.767303	0.006926
169	C	0.2229	0.732255	0.004089
170	H	0.197238	0.71527	0.001486
171	C	0.230833	0.681962	0.999966
172	H	0.203039	0.668229	0.996644
173	C	0.209062	0.778144	0.006448
174	H	0.183705	0.759969	0.004713
175	C	0.225922	0.981945	0.676952
176	H	0.200356	0.964631	0.679251
177	C	0.20994	0.526924	0.68232
178	H	0.214429	0.542194	0.712775
179	H	0.184149	0.504945	0.684873
180	H	0.210332	0.541686	0.652943
181	N	0.300738	0.199872	0.007788
182	C	0.246114	0.219753	0.337604
183	C	0.282168	0.243233	0.007936
184	C	0.293201	0.279042	0.011038
185	C	0.268914	0.290192	0.010271
186	H	0.277164	0.315758	0.012569
187	H	0.2368	0.171865	0.363229
188	H	0.2409	0.176038	0.303296
189	C	0.248812	0.469465	0.340264
190	C	0.283858	0.493868	0.337418
191	C	0.296361	0.029585	0.3376
192	C	0.272882	0.042159	0.007937
193	C	0.237073	0.017383	0.011045
194	H	0.300842	0.485191	0.334811
195	C	0.23797	0.434141	0.339788
196	H	0.256146	0.42696	0.338042
197	C	0.283611	0.077767	0.00845
198	H	0.265546	0.084965	0.009868
199	N	0.300738	0.199872	0.341121
200	C	0.246114	0.219753	0.670936
201	C	0.282168	0.243233	0.34127
202	C	0.293201	0.279042	0.344369
203	C	0.268914	0.290192	0.343603
204	H	0.277164	0.315758	0.345902
205	H	0.2368	0.171865	0.696565
206	H	0.2409	0.176038	0.636629
207	C	0.248812	0.469465	0.673599
208	C	0.283858	0.493868	0.670753
209	C	0.296361	0.029585	0.670932
210	C	0.272882	0.042159	0.34127
211	C	0.237073	0.017383	0.34438
212	H	0.300842	0.485191	0.668143
213	C	0.23797	0.434141	0.67312
214	H	0.256146	0.42696	0.671374
215	C	0.283611	0.077767	0.341783
216	H	0.265546	0.084965	0.343201
217	N	0.300738	0.199872	0.674454
218	C	0.246114	0.219753	0.004271
219	C	0.282168	0.243233	0.674602
220	C	0.293201	0.279042	0.677705
221	C	0.268914	0.290192	0.676939
222	H	0.277164	0.315758	0.679235
223	H	0.2368	0.171865	0.029898
224	H	0.2409	0.176038	0.969961
225	C	0.248812	0.469465	0.006931
226	C	0.283858	0.493868	0.004085
227	C	0.296361	0.029585	0.004268
228	C	0.272882	0.042159	0.674606
229	C	0.237073	0.017383	0.677712
230	H	0.300842	0.485191	0.001479
231	C	0.23797	0.434141	0.006454
232	H	0.256146	0.42696	0.00471
233	C	0.283611	0.077767	0.675115
234	H	0.265546	0.084965	0.676533
235	N	0.300737	0.699871	0.007788
236	C	0.246114	0.719753	0.337604
237	C	0.282167	0.743232	0.007936
238	C	0.2932	0.779041	0.011038
239	C	0.268914	0.790194	0.010271
240	H	0.277163	0.815757	0.012569
241	H	0.2368	0.671866	0.363229
242	H	0.2409	0.676038	0.303296
243	C	0.248812	0.969467	0.340264
244	C	0.283858	0.99387	0.337418
245	C	0.296361	0.529585	0.3376
246	C	0.272881	0.542159	0.007937
247	C	0.237072	0.517382	0.011045
248	H	0.300842	0.985192	0.334811
249	C	0.23797	0.934143	0.339788
250	H	0.256147	0.926962	0.338042
251	C	0.283611	0.577768	0.00845
252	H	0.265545	0.584967	0.009868
253	N	0.300737	0.699871	0.341121
254	C	0.246114	0.719753	0.670936
255	C	0.282167	0.743232	0.34127
256	C	0.2932	0.779041	0.344369
257	C	0.268914	0.790194	0.343603
258	H	0.277163	0.815757	0.345902
259	H	0.2368	0.671866	0.696565
260	H	0.2409	0.676038	0.636629
261	C	0.248812	0.969467	0.673599
262	C	0.283858	0.99387	0.670753
263	C	0.296361	0.529585	0.670932
264	C	0.272881	0.542159	0.34127
265	C	0.237072	0.517382	0.34438
266	H	0.300842	0.985192	0.668143
267	C	0.23797	0.934143	0.67312
268	H	0.256147	0.926962	0.671374
269	C	0.283611	0.577768	0.341783
270	H	0.265545	0.584967	0.343201
271	N	0.300737	0.699871	0.674454
272	C	0.246114	0.719753	0.004271
273	C	0.282167	0.743232	0.674602
274	C	0.2932	0.779041	0.677705
275	C	0.268914	0.790194	0.676939
276	H	0.277163	0.815757	0.679235
277	H	0.2368	0.671866	0.029898
278	H	0.2409	0.676038	0.969961
279	C	0.248812	0.969467	0.006931
280	C	0.283858	0.99387	0.004085
281	C	0.296361	0.529585	0.004268
282	C	0.272881	0.542159	0.674606
283	C	0.237072	0.517382	0.677712
284	H	0.300842	0.985192	0.001479
285	C	0.23797	0.934143	0.006454
286	H	0.256147	0.926962	0.00471
287	C	0.283611	0.577768	0.675115
288	H	0.265545	0.584967	0.676533
289	C	0.377809	0.193747	0.007879
290	N	0.357004	0.207425	0.007866
291	C	0.322366	0.187284	0.007879
292	N	0.308688	0.152801	0.007866
293	C	0.328831	0.138305	0.007879
294	N	0.363312	0.159111	0.007866
295	N	0.412025	0.215376	0.007789
296	N	0.316242	0.10409	0.007788
297	C	0.329875	0.306176	0.015635
298	H	0.340662	0.301693	0.04609
299	H	0.333688	0.331966	0.01818
300	H	0.344241	0.305777	0.986255
301	C	0.307047	0.232503	0.008449
302	H	0.332312	0.250569	0.009865
303	C	0.334152	0.052095	0.333288
304	H	0.347884	0.038034	0.329959
305	H	0.344252	0.068159	0.363216
306	H	0.34007	0.068085	0.303282
307	C	0.486528	0.269999	0.337607
308	C	0.473955	0.233945	0.00794
309	C	0.498731	0.222913	0.011044
310	C	0.464018	0.28528	0.333303
311	H	0.478082	0.313075	0.32998
312	H	0.447957	0.279315	0.363233
313	H	0.448029	0.275212	0.303297
314	C	0.489191	0.186239	0.015643
315	H	0.473919	0.175452	0.046097
316	H	0.511168	0.182426	0.01819
317	H	0.474428	0.171873	0.986262
318	C	0.438347	0.209067	0.008451
319	H	0.431148	0.183802	0.009868
320	C	0.377809	0.193747	0.341213
321	N	0.357004	0.207425	0.341199
322	C	0.322366	0.187284	0.341213
323	N	0.308688	0.152801	0.341199
324	C	0.328831	0.138305	0.341213
325	N	0.363312	0.159111	0.341199
326	N	0.412025	0.215376	0.341121
327	N	0.316242	0.10409	0.341121
328	C	0.329875	0.306176	0.348968
329	H	0.340662	0.301693	0.379422
330	H	0.333688	0.331966	0.351514
331	H	0.344241	0.305777	0.319589
332	C	0.307047	0.232503	0.341783
333	H	0.332312	0.250569	0.343198
334	C	0.334152	0.052095	0.666621
335	H	0.347884	0.038034	0.663292
336	H	0.344252	0.068159	0.696548
337	H	0.34007	0.068085	0.636615
338	C	0.486528	0.269999	0.670939
339	C	0.473955	0.233945	0.341273
340	C	0.498731	0.222913	0.344376
341	C	0.464018	0.28528	0.666638
342	H	0.478082	0.313075	0.663312
343	H	0.447957	0.279315	0.696565
344	H	0.448029	0.275212	0.636629
345	C	0.489191	0.186239	0.348975
346	H	0.473919	0.175452	0.379429
347	H	0.511168	0.182426	0.351524
348	H	0.474428	0.171873	0.319596
349	C	0.438347	0.209067	0.341783
350	H	0.431148	0.183802	0.343201
351	C	0.377809	0.193747	0.674545
352	N	0.357004	0.207425	0.674531
353	C	0.322366	0.187284	0.674545
354	N	0.308688	0.152801	0.674531
355	C	0.328831	0.138305	0.674545
356	N	0.363312	0.159111	0.674531
357	N	0.412025	0.215376	0.674454
358	N	0.316242	0.10409	0.674454
359	C	0.329875	0.306176	0.6823
360	H	0.340662	0.301693	0.712758
361	H	0.333688	0.331966	0.684846
362	H	0.344241	0.305777	0.652923
363	C	0.307047	0.232503	0.675115
364	H	0.332312	0.250569	0.67653
365	C	0.334152	0.052095	0.999953
366	H	0.347884	0.038034	0.996627
367	H	0.344252	0.068159	0.029883
368	H	0.34007	0.068085	0.969948
369	C	0.486528	0.269999	0.004275
370	C	0.473955	0.233945	0.674606
371	C	0.498731	0.222913	0.677712
372	C	0.464018	0.28528	0.99997
373	H	0.478082	0.313075	0.996647
374	H	0.447957	0.279315	0.029898
375	H	0.448029	0.275212	0.969965
376	C	0.489191	0.186239	0.68231
377	H	0.473919	0.175452	0.712765
378	H	0.511168	0.182426	0.684856
379	H	0.474428	0.171873	0.65293
380	C	0.438347	0.209067	0.675119
381	H	0.431148	0.183802	0.676533
382	C	0.377808	0.693748	0.007879
383	N	0.357002	0.707425	0.007866
384	C	0.322366	0.687285	0.007879
385	N	0.308689	0.652802	0.007866
386	C	0.328829	0.638305	0.007879
387	N	0.363313	0.659112	0.007866
388	N	0.412024	0.715377	0.007789
389	N	0.316242	0.60409	0.007788
390	C	0.329874	0.806175	0.015635
391	H	0.340661	0.801692	0.04609
392	H	0.333687	0.831965	0.01818
393	H	0.344241	0.805779	0.986255
394	C	0.307046	0.732503	0.008449
395	H	0.332312	0.750571	0.009865
396	C	0.334151	0.552096	0.333288
397	H	0.347883	0.538033	0.329959
398	H	0.344252	0.568158	0.363216
399	H	0.34007	0.568084	0.303282
400	C	0.486529	0.77	0.337607
401	C	0.473954	0.733946	0.00794
402	C	0.49873	0.722913	0.011044
403	C	0.464019	0.785281	0.333303
404	H	0.478079	0.813074	0.32998
405	H	0.447954	0.779314	0.363233
406	H	0.448029	0.775214	0.303297
407	C	0.489191	0.686241	0.015643
408	H	0.473919	0.675453	0.046097
409	H	0.511168	0.682427	0.01819
410	H	0.474428	0.671874	0.986262
411	C	0.438346	0.709068	0.008451
412	H	0.431148	0.683804	0.009868
413	C	0.377808	0.693748	0.341213
414	N	0.357002	0.707425	0.341199
415	C	0.322366	0.687285	0.341213
416	N	0.308689	0.652802	0.341199
417	C	0.328829	0.638305	0.341213
418	N	0.363313	0.659112	0.341199
419	N	0.412024	0.715377	0.341121
420	N	0.316242	0.60409	0.341121
421	C	0.329874	0.806175	0.348968
422	H	0.340661	0.801692	0.379422
423	H	0.333687	0.831965	0.351514
424	H	0.344241	0.805779	0.319589
425	C	0.307046	0.732503	0.341783
426	H	0.332312	0.750571	0.343198
427	C	0.334151	0.552096	0.666621
428	H	0.347883	0.538033	0.663292
429	H	0.344252	0.568158	0.696548
430	H	0.34007	0.568084	0.636615
431	C	0.486529	0.77	0.670939
432	C	0.473954	0.733946	0.341273
433	C	0.49873	0.722913	0.344376
434	C	0.464019	0.785281	0.666638
435	H	0.478079	0.813074	0.663312
436	H	0.447954	0.779314	0.696565
437	H	0.448029	0.775214	0.636629
438	C	0.489191	0.686241	0.348975
439	H	0.473919	0.675453	0.379429
440	H	0.511168	0.682427	0.351524
441	H	0.474428	0.671874	0.319596
442	C	0.438346	0.709068	0.341783
443	H	0.431148	0.683804	0.343201
444	C	0.377808	0.693748	0.674545
445	N	0.357002	0.707425	0.674531
446	C	0.322366	0.687285	0.674545
447	N	0.308689	0.652802	0.674531
448	C	0.328829	0.638305	0.674545
449	N	0.363313	0.659112	0.674531
450	N	0.412024	0.715377	0.674454
451	N	0.316242	0.60409	0.674454
452	C	0.329874	0.806175	0.6823
453	H	0.340661	0.801692	0.712758
454	H	0.333687	0.831965	0.684846
455	H	0.344241	0.805779	0.652923
456	C	0.307046	0.732503	0.675115
457	H	0.332312	0.750571	0.67653
458	C	0.334151	0.552096	0.999953
459	H	0.347883	0.538033	0.996627
460	H	0.344252	0.568158	0.029883
461	H	0.34007	0.568084	0.969948
462	C	0.486529	0.77	0.004275
463	C	0.473954	0.733946	0.674606
464	C	0.49873	0.722913	0.677712
465	C	0.464019	0.785281	0.99997
466	H	0.478079	0.813074	0.996647
467	H	0.447954	0.779314	0.029898
468	H	0.448029	0.775214	0.969965
469	C	0.489191	0.686241	0.68231
470	H	0.473919	0.675453	0.712765
471	H	0.511168	0.682427	0.684856
472	H	0.474428	0.671874	0.65293
473	C	0.438346	0.709068	0.675119
474	H	0.431148	0.683804	0.676533
475	C	0.641419	0.31983	0.007534
476	N	0.66156	0.305399	0.007537
477	C	0.696284	0.324813	0.007531
478	N	0.710715	0.359384	0.007537
479	C	0.6913	0.374693	0.007534
480	N	0.65673	0.354553	0.007541
481	N	0.607062	0.298918	0.007514
482	N	0.704746	0.409053	0.007515
483	N	0.717196	0.311366	0.007508
484	C	0.877808	0.193747	0.007879
485	N	0.857002	0.207425	0.007866
486	C	0.822367	0.187284	0.007879
487	N	0.808689	0.152801	0.007866
488	C	0.82883	0.138305	0.007879
489	N	0.863313	0.159111	0.007866
490	N	0.912024	0.215376	0.007789
491	N	0.816241	0.10409	0.007788
492	N	0.800738	0.199872	0.007788
493	C	0.733544	0.267301	0.34026
494	C	0.722901	0.232255	0.337424
495	C	0.746115	0.219753	0.337604
496	C	0.782168	0.243233	0.007936
497	C	0.793201	0.279042	0.011038
498	H	0.697237	0.215271	0.334818
499	C	0.768915	0.290192	0.010271
500	H	0.777163	0.315758	0.012569
501	C	0.730832	0.181961	0.333301
502	H	0.70304	0.168229	0.329979
503	H	0.736799	0.171865	0.363229
504	H	0.740901	0.176038	0.303296
505	C	0.829875	0.306176	0.015635
506	H	0.840662	0.301693	0.04609
507	H	0.833687	0.331966	0.01818
508	H	0.844242	0.305777	0.986255
509	C	0.709062	0.278143	0.339781
510	H	0.683705	0.259967	0.338046
511	C	0.807047	0.232503	0.008449
512	H	0.832312	0.250569	0.009865
513	C	0.748812	0.469465	0.340264
514	C	0.783857	0.493868	0.337418
515	C	0.796362	0.029585	0.3376
516	C	0.772881	0.042159	0.007937
517	C	0.737074	0.017383	0.011045
518	H	0.800843	0.485191	0.334811
519	C	0.725921	0.481946	0.010285
520	H	0.700357	0.464629	0.012586
521	C	0.834151	0.052095	0.333288
522	H	0.847882	0.038034	0.329959
523	H	0.844251	0.068159	0.363216
524	H	0.840071	0.068085	0.303282
525	C	0.70994	0.026922	0.015655
526	H	0.714429	0.042195	0.046109
527	H	0.684149	0.004946	0.018207
528	H	0.710331	0.041686	0.986275
529	C	0.737971	0.434141	0.339788
530	H	0.756147	0.42696	0.338042
531	C	0.783612	0.077767	0.00845
532	H	0.765544	0.084965	0.009868
533	C	0.546649	0.282569	0.340267
534	C	0.522245	0.293214	0.337429
535	C	0.986527	0.269999	0.337607
536	C	0.973954	0.233945	0.00794
537	C	0.99873	0.222913	0.011044
538	H	0.530924	0.318877	0.334823
539	C	0.534167	0.247199	0.010279
540	H	0.551484	0.23895	0.012579
541	C	0.964019	0.28528	0.333303
542	H	0.97808	0.313075	0.32998
543	H	0.947955	0.279315	0.363233
544	H	0.948028	0.275212	0.303297
545	C	0.989192	0.186239	0.015643
546	H	0.973918	0.175452	0.046097
547	H	0.974427	0.171873	0.986262
548	C	0.581971	0.307052	0.339791
549	H	0.589155	0.33241	0.338052
550	C	0.938346	0.209067	0.008451
551	H	0.931149	0.183802	0.009868
552	C	0.641419	0.31983	0.340868
553	N	0.66156	0.305399	0.340872
554	C	0.696284	0.324813	0.340865
555	N	0.710715	0.359384	0.340872
556	C	0.6913	0.374693	0.340868
557	N	0.65673	0.354553	0.340875
558	N	0.607062	0.298918	0.340848
559	N	0.704746	0.409053	0.340848
560	N	0.717196	0.311366	0.340841
561	C	0.877808	0.193747	0.341213
562	N	0.857002	0.207425	0.341199
563	C	0.822367	0.187284	0.341213
564	N	0.808689	0.152801	0.341199
565	C	0.82883	0.138305	0.341213
566	N	0.863313	0.159111	0.341199
567	N	0.912024	0.215376	0.341121
568	N	0.816241	0.10409	0.341121
569	N	0.800738	0.199872	0.341121
570	C	0.733544	0.267301	0.673593
571	C	0.722901	0.232255	0.670757
572	C	0.746115	0.219753	0.670936
573	C	0.782168	0.243233	0.34127
574	C	0.793201	0.279042	0.344369
575	H	0.697237	0.215271	0.66815
576	C	0.768915	0.290192	0.343603
577	H	0.777163	0.315758	0.345902
578	C	0.730832	0.181961	0.666634
579	H	0.70304	0.168229	0.663312
580	H	0.736799	0.171865	0.696565
581	H	0.740901	0.176038	0.636629
582	C	0.829875	0.306176	0.348968
583	H	0.840662	0.301693	0.379422
584	H	0.833687	0.331966	0.351514
585	H	0.844242	0.305777	0.319589
586	C	0.709062	0.278143	0.673113
587	H	0.683705	0.259967	0.671381
588	C	0.807047	0.232503	0.341783
589	H	0.832312	0.250569	0.343198
590	C	0.748812	0.469465	0.673599
591	C	0.783857	0.493868	0.670753
592	C	0.796362	0.029585	0.670932
593	C	0.772881	0.042159	0.34127
594	C	0.737074	0.017383	0.34438
595	H	0.800843	0.485191	0.668143
596	C	0.725921	0.481946	0.343616
597	H	0.700357	0.464629	0.345919
598	C	0.834151	0.052095	0.666621
599	H	0.847882	0.038034	0.663292
600	H	0.844251	0.068159	0.696548
601	H	0.840071	0.068085	0.636615
602	C	0.70994	0.026922	0.348988
603	H	0.714429	0.042195	0.379442
604	H	0.684149	0.004946	0.351541
605	H	0.710331	0.041686	0.319611
606	C	0.737971	0.434141	0.67312
607	H	0.756147	0.42696	0.671374
608	C	0.783612	0.077767	0.341783
609	H	0.765544	0.084965	0.343201
610	C	0.546649	0.282569	0.673599
611	C	0.522245	0.293214	0.670763
612	C	0.986527	0.269999	0.670939
613	C	0.973954	0.233945	0.341273
614	C	0.99873	0.222913	0.344376
615	H	0.530924	0.318877	0.668157
616	C	0.534167	0.247199	0.343613
617	H	0.551484	0.23895	0.345912
618	C	0.964019	0.28528	0.666638
619	H	0.97808	0.313075	0.663312
620	H	0.947955	0.279315	0.696565
621	H	0.948028	0.275212	0.636629
622	C	0.989192	0.186239	0.348975
623	H	0.973918	0.175452	0.379429
624	H	0.974427	0.171873	0.319596
625	C	0.581971	0.307052	0.673123
626	H	0.589155	0.33241	0.671385
627	C	0.938346	0.209067	0.341783
628	H	0.931149	0.183802	0.343201
629	C	0.641419	0.31983	0.6742
630	N	0.66156	0.305399	0.674204
631	C	0.696284	0.324813	0.674197
632	N	0.710715	0.359384	0.674204
633	C	0.6913	0.374693	0.6742
634	N	0.65673	0.354553	0.674207
635	N	0.607062	0.298918	0.67418
636	N	0.704746	0.409053	0.67418
637	N	0.717196	0.311366	0.674173
638	C	0.877808	0.193747	0.674545
639	N	0.857002	0.207425	0.674531
640	C	0.822367	0.187284	0.674545
641	N	0.808689	0.152801	0.674531
642	C	0.82883	0.138305	0.674545
643	N	0.863313	0.159111	0.674531
644	N	0.912024	0.215376	0.674454
645	N	0.816241	0.10409	0.674454
646	N	0.800738	0.199872	0.674454
647	C	0.733544	0.267301	0.006926
648	C	0.722901	0.232255	0.004089
649	C	0.746115	0.219753	0.004271
650	C	0.782168	0.243233	0.674602
651	C	0.793201	0.279042	0.677705
652	H	0.697237	0.215271	0.001486
653	C	0.768915	0.290192	0.676939
654	H	0.777163	0.315758	0.679235
655	C	0.730832	0.181961	0.999966
656	H	0.70304	0.168229	0.996644
657	H	0.736799	0.171865	0.029898
658	H	0.740901	0.176038	0.969961
659	C	0.829875	0.306176	0.6823
660	H	0.840662	0.301693	0.712758
661	H	0.833687	0.331966	0.684846
662	H	0.844242	0.305777	0.652923
663	C	0.709062	0.278143	0.006448
664	H	0.683705	0.259967	0.004713
665	C	0.807047	0.232503	0.675115
666	H	0.832312	0.250569	0.67653
667	C	0.748812	0.469465	0.006931
668	C	0.783857	0.493868	0.004085
669	C	0.796362	0.029585	0.004268
670	C	0.772881	0.042159	0.674606
671	C	0.737074	0.017383	0.677712
672	H	0.800843	0.485191	0.001479
673	C	0.725921	0.481946	0.676952
674	H	0.700357	0.464629	0.679251
675	C	0.834151	0.052095	0.999953
676	H	0.847882	0.038034	0.996627
677	H	0.844251	0.068159	0.029883
678	H	0.840071	0.068085	0.969948
679	C	0.70994	0.026922	0.68232
680	H	0.714429	0.042195	0.712775
681	H	0.684149	0.004946	0.684873
682	H	0.710331	0.041686	0.652943
683	C	0.737971	0.434141	0.006454
684	H	0.756147	0.42696	0.00471
685	C	0.783612	0.077767	0.675115
686	H	0.765544	0.084965	0.676533
687	C	0.546649	0.282569	0.006933
688	C	0.522245	0.293214	0.004096
689	C	0.986527	0.269999	0.004275
690	C	0.973954	0.233945	0.674606
691	C	0.99873	0.222913	0.677712
692	H	0.530924	0.318877	0.001489
693	C	0.534167	0.247199	0.676945
694	H	0.551484	0.23895	0.679245
695	C	0.964019	0.28528	0.99997
696	H	0.97808	0.313075	0.996647
697	H	0.947955	0.279315	0.029898
698	H	0.948028	0.275212	0.969965
699	C	0.989192	0.186239	0.68231
700	H	0.973918	0.175452	0.712765
701	H	0.974427	0.171873	0.65293
702	C	0.581971	0.307052	0.006457
703	H	0.589155	0.33241	0.00472
704	C	0.938346	0.209067	0.675119
705	H	0.931149	0.183802	0.676533
706	C	0.64142	0.819831	0.007534
707	N	0.661559	0.805401	0.007537
708	C	0.696285	0.824815	0.007531
709	N	0.710714	0.859385	0.007537
710	C	0.691299	0.874694	0.007534
711	N	0.65673	0.854555	0.007541
712	N	0.60706	0.798917	0.007514
713	N	0.704746	0.909052	0.007515
714	N	0.717197	0.811368	0.007508
715	C	0.877809	0.693748	0.007879
716	N	0.857002	0.707425	0.007866
717	C	0.822365	0.687285	0.007879
718	N	0.808688	0.652802	0.007866
719	C	0.828829	0.638305	0.007879
720	N	0.863313	0.659112	0.007866
721	N	0.912024	0.715377	0.007789
722	N	0.816242	0.60409	0.007788
723	N	0.800737	0.699871	0.007788
724	C	0.733543	0.767303	0.34026
725	C	0.722899	0.732255	0.337424
726	C	0.746113	0.719753	0.337604
727	C	0.782167	0.743232	0.007936
728	C	0.793201	0.779041	0.011038
729	H	0.697237	0.71527	0.334818
730	C	0.768914	0.790194	0.010271
731	H	0.777162	0.815757	0.012569
732	C	0.730832	0.681962	0.333301
733	H	0.703038	0.668229	0.329979
734	H	0.7368	0.671866	0.363229
735	H	0.740901	0.676038	0.303296
736	C	0.829873	0.806175	0.015635
737	H	0.840661	0.801692	0.04609
738	H	0.833686	0.831965	0.01818
739	H	0.84424	0.805779	0.986255
740	C	0.709062	0.778144	0.339781
741	H	0.683703	0.759969	0.338046
742	C	0.807047	0.732503	0.008449
743	H	0.832312	0.750571	0.009865
744	C	0.748813	0.969467	0.340264
745	C	0.783858	0.99387	0.337418
746	C	0.79636	0.529585	0.3376
747	C	0.772881	0.542159	0.007937
748	C	0.737071	0.517382	0.011045
749	H	0.800841	0.985192	0.334811
750	C	0.725921	0.981945	0.010285
751	H	0.700357	0.964631	0.012586
752	C	0.834151	0.552096	0.333288
753	H	0.847882	0.538033	0.329959
754	H	0.844251	0.568158	0.363216
755	H	0.840071	0.568084	0.303282
756	C	0.709939	0.526924	0.015655
757	H	0.714428	0.542194	0.046109
758	H	0.684149	0.504945	0.018207
759	H	0.710331	0.541686	0.986275
760	C	0.737969	0.934143	0.339788
761	H	0.756147	0.926962	0.338042
762	C	0.783611	0.577768	0.00845
763	H	0.765545	0.584967	0.009868
764	C	0.546648	0.782571	0.340267
765	C	0.522245	0.793213	0.337429
766	C	0.986528	0.77	0.337607
767	C	0.973954	0.733946	0.00794
768	C	0.99873	0.722913	0.011044
769	H	0.530922	0.818876	0.334823
770	C	0.534168	0.747199	0.010279
771	H	0.551483	0.73895	0.012579
772	C	0.96402	0.785281	0.333303
773	H	0.97808	0.813074	0.32998
774	H	0.947955	0.779314	0.363233
775	H	0.948029	0.775214	0.303297
776	C	0.989192	0.686241	0.015643
777	H	0.973918	0.675453	0.046097
778	H	0.974427	0.671874	0.986262
779	C	0.581971	0.807051	0.339791
780	H	0.589153	0.832409	0.338052
781	C	0.938346	0.709068	0.008451
782	H	0.931149	0.683804	0.009868
783	C	0.64142	0.819831	0.340868
784	N	0.661559	0.805401	0.340872
785	C	0.696285	0.824815	0.340865
786	N	0.710714	0.859385	0.340872
787	C	0.691299	0.874694	0.340868
788	N	0.65673	0.854555	0.340875
789	N	0.60706	0.798917	0.340848
790	N	0.704746	0.909052	0.340848
791	N	0.717197	0.811368	0.340841
792	C	0.877809	0.693748	0.341213
793	N	0.857002	0.707425	0.341199
794	C	0.822365	0.687285	0.341213
795	N	0.808688	0.652802	0.341199
796	C	0.828829	0.638305	0.341213
797	N	0.863313	0.659112	0.341199
798	N	0.912024	0.715377	0.341121
799	N	0.816242	0.60409	0.341121
800	N	0.800737	0.699871	0.341121
801	C	0.733543	0.767303	0.673593
802	C	0.722899	0.732255	0.670757
803	C	0.746113	0.719753	0.670936
804	C	0.782167	0.743232	0.34127
805	C	0.793201	0.779041	0.344369
806	H	0.697237	0.71527	0.66815
807	C	0.768914	0.790194	0.343603
808	H	0.777162	0.815757	0.345902
809	C	0.730832	0.681962	0.666634
810	H	0.703038	0.668229	0.663312
811	H	0.7368	0.671866	0.696565
812	H	0.740901	0.676038	0.636629
813	C	0.829873	0.806175	0.348968
814	H	0.840661	0.801692	0.379422
815	H	0.833686	0.831965	0.351514
816	H	0.84424	0.805779	0.319589
817	C	0.709062	0.778144	0.673113
818	H	0.683703	0.759969	0.671381
819	C	0.807047	0.732503	0.341783
820	H	0.832312	0.750571	0.343198
821	C	0.748813	0.969467	0.673599
822	C	0.783858	0.99387	0.670753
823	C	0.79636	0.529585	0.670932
824	C	0.772881	0.542159	0.34127
825	C	0.737071	0.517382	0.34438
826	H	0.800841	0.985192	0.668143
827	C	0.725921	0.981945	0.343616
828	H	0.700357	0.964631	0.345919
829	C	0.834151	0.552096	0.666621
830	H	0.847882	0.538033	0.663292
831	H	0.844251	0.568158	0.696548
832	H	0.840071	0.568084	0.636615
833	C	0.709939	0.526924	0.348988
834	H	0.714428	0.542194	0.379442
835	H	0.684149	0.504945	0.351541
836	H	0.710331	0.541686	0.319611
837	C	0.737969	0.934143	0.67312
838	H	0.756147	0.926962	0.671374
839	C	0.783611	0.577768	0.341783
840	H	0.765545	0.584967	0.343201
841	C	0.546648	0.782571	0.673599
842	C	0.522245	0.793213	0.670763
843	C	0.986528	0.77	0.670939
844	C	0.973954	0.733946	0.341273
845	C	0.99873	0.722913	0.344376
846	H	0.530922	0.818876	0.668157
847	C	0.534168	0.747199	0.343613
848	H	0.551483	0.73895	0.345912
849	C	0.96402	0.785281	0.666638
850	H	0.97808	0.813074	0.663312
851	H	0.947955	0.779314	0.696565
852	H	0.948029	0.775214	0.636629
853	C	0.989192	0.686241	0.348975
854	H	0.973918	0.675453	0.379429
855	H	0.974427	0.671874	0.319596
856	C	0.581971	0.807051	0.673123
857	H	0.589153	0.832409	0.671385
858	C	0.938346	0.709068	0.341783
859	H	0.931149	0.683804	0.343201
860	C	0.64142	0.819831	0.6742
861	N	0.661559	0.805401	0.674204
862	C	0.696285	0.824815	0.674197
863	N	0.710714	0.859385	0.674204
864	C	0.691299	0.874694	0.6742
865	N	0.65673	0.854555	0.674207
866	N	0.60706	0.798917	0.67418
867	N	0.704746	0.909052	0.67418
868	N	0.717197	0.811368	0.674173
869	C	0.877809	0.693748	0.674545
870	N	0.857002	0.707425	0.674531
871	C	0.822365	0.687285	0.674545
872	N	0.808688	0.652802	0.674531
873	C	0.828829	0.638305	0.674545
874	N	0.863313	0.659112	0.674531
875	N	0.912024	0.715377	0.674454
876	N	0.816242	0.60409	0.674454
877	N	0.800737	0.699871	0.674454
878	C	0.733543	0.767303	0.006926
879	C	0.722899	0.732255	0.004089
880	C	0.746113	0.719753	0.004271
881	C	0.782167	0.743232	0.674602
882	C	0.793201	0.779041	0.677705
883	H	0.697237	0.71527	0.001486
884	C	0.768914	0.790194	0.676939
885	H	0.777162	0.815757	0.679235
886	C	0.730832	0.681962	0.999966
887	H	0.703038	0.668229	0.996644
888	H	0.7368	0.671866	0.029898
889	H	0.740901	0.676038	0.969961
890	C	0.829873	0.806175	0.6823
891	H	0.840661	0.801692	0.712758
892	H	0.833686	0.831965	0.684846
893	H	0.84424	0.805779	0.652923
894	C	0.709062	0.778144	0.006448
895	H	0.683703	0.759969	0.004713
896	C	0.807047	0.732503	0.675115
897	H	0.832312	0.750571	0.67653
898	C	0.748813	0.969467	0.006931
899	C	0.783858	0.99387	0.004085
900	C	0.79636	0.529585	0.004268
901	C	0.772881	0.542159	0.674606
902	C	0.737071	0.517382	0.677712
903	H	0.800841	0.985192	0.001479
904	C	0.725921	0.981945	0.676952
905	H	0.700357	0.964631	0.679251
906	C	0.834151	0.552096	0.999953
907	H	0.847882	0.538033	0.996627
908	H	0.844251	0.568158	0.029883
909	H	0.840071	0.568084	0.969948
910	C	0.709939	0.526924	0.68232
911	H	0.714428	0.542194	0.712775
912	H	0.684149	0.504945	0.684873
913	H	0.710331	0.541686	0.652943
914	C	0.737969	0.934143	0.006454
915	H	0.756147	0.926962	0.00471
916	C	0.783611	0.577768	0.675115
917	H	0.765545	0.584967	0.676533
918	C	0.546648	0.782571	0.006933
919	C	0.522245	0.793213	0.004096
920	C	0.986528	0.77	0.004275
921	C	0.973954	0.733946	0.674606
922	C	0.99873	0.722913	0.677712
923	H	0.530922	0.818876	0.001489
924	C	0.534168	0.747199	0.676945
925	H	0.551483	0.73895	0.679245
926	C	0.96402	0.785281	0.99997
927	H	0.97808	0.813074	0.996647
928	H	0.947955	0.779314	0.029898
929	H	0.948029	0.775214	0.969965
930	C	0.989192	0.686241	0.68231
931	H	0.973918	0.675453	0.712765
932	H	0.974427	0.671874	0.65293
933	C	0.581971	0.807051	0.006457
934	H	0.589153	0.832409	0.00472
935	C	0.938346	0.709068	0.675119
936	H	0.931149	0.683804	0.676533
