data_C792H576_2018-02-15_10:39:37
#******************************************
#
# CIF file created by Zeo++
# Zeo++ is an open source package to
# analyze microporous materials
#
#*******************************************

_cell_length_a		45.4074   
_cell_length_b		45.4285   
_cell_length_c		29.6082   
_cell_angle_alpha		90   
_cell_angle_beta		90   
_cell_angle_gamma		119.989   

_symmetry_space_group_name_H-M		'P1'
_symmetry_Int_Tables_number		1
_symmetry_cell_setting		Monoclinic

loop_
_symmetry_equiv_pos_as_xyz
'+x,+y,+z'

loop_
_atom_site_label
_atom_site_type_symbol
_atom_site_fract_x
_atom_site_fract_y
_atom_site_fract_z
1	C	0.043521	0.023282	0.007013
2	C	0.025218	0.040968	0.007045
3	C	0.025173	0.487308	0.007065
4	H	0.038184	0.47427	0.006423
5	H	0.03826	0.067008	0.006426
6	C	0.152584	0.077899	0.339544
7	C	0.134383	0.068895	0.298394
8	C	0.098278	0.050777	0.29729
9	C	0.079832	0.041414	0.338737
10	C	0.098148	0.050464	0.04653
11	H	0.147762	0.075702	0.268714
12	C	0.133975	0.068418	0.046954
13	H	0.085472	0.044035	0.076742
14	H	0.146411	0.074577	0.077327
15	C	0.080391	0.041907	0.252988
16	H	0.097925	0.050747	0.224394
17	H	0.064364	0.053434	0.250304
18	H	0.064435	0.014369	0.250123
19	C	0.043521	0.023282	0.340348
20	C	0.025218	0.040968	0.340378
21	C	0.025173	0.487308	0.340399
22	H	0.038184	0.47427	0.339757
23	H	0.03826	0.067008	0.33976
24	C	0.152584	0.077899	0.672877
25	C	0.134383	0.068895	0.631726
26	C	0.098278	0.050777	0.630622
27	C	0.079832	0.041414	0.67207
28	C	0.098148	0.050464	0.379864
29	H	0.147762	0.075702	0.602049
30	C	0.133975	0.068418	0.380286
31	H	0.085472	0.044035	0.410075
32	H	0.146411	0.074577	0.410659
33	C	0.080391	0.041907	0.586323
34	H	0.097925	0.050747	0.557727
35	H	0.064364	0.053434	0.583638
36	H	0.064435	0.014369	0.583456
37	C	0.043521	0.023282	0.673681
38	C	0.025218	0.040968	0.673711
39	C	0.025173	0.487308	0.673732
40	H	0.038184	0.47427	0.67309
41	H	0.03826	0.067008	0.673093
42	C	0.152584	0.077899	0.00621
43	C	0.134383	0.068895	0.965063
44	C	0.098278	0.050777	0.963958
45	C	0.079832	0.041414	0.005406
46	C	0.098148	0.050464	0.713197
47	H	0.147762	0.075702	0.935382
48	C	0.133975	0.068418	0.713622
49	H	0.085472	0.044035	0.743408
50	H	0.146411	0.074577	0.743996
51	C	0.080391	0.041907	0.919656
52	H	0.097925	0.050747	0.89106
53	H	0.064364	0.053434	0.916971
54	H	0.064435	0.014369	0.916789
55	C	0.043521	0.523283	0.007013
56	C	0.025219	0.540969	0.007045
57	C	0.025172	0.987307	0.007065
58	H	0.038184	0.974269	0.006423
59	H	0.038261	0.567009	0.006426
60	C	0.152585	0.5779	0.339544
61	C	0.134383	0.568895	0.298394
62	C	0.098277	0.550777	0.29729
63	C	0.079832	0.541414	0.338737
64	C	0.098148	0.550464	0.04653
65	H	0.147762	0.575701	0.268714
66	C	0.133974	0.568417	0.046954
67	H	0.085471	0.544034	0.076742
68	H	0.146411	0.574578	0.077327
69	C	0.08039	0.541907	0.252988
70	H	0.097924	0.550746	0.224394
71	H	0.064365	0.553435	0.250304
72	H	0.064435	0.51437	0.250123
73	C	0.043521	0.523283	0.340348
74	C	0.025219	0.540969	0.340378
75	C	0.025172	0.987307	0.340399
76	H	0.038184	0.974269	0.339757
77	H	0.038261	0.567009	0.33976
78	C	0.152585	0.5779	0.672877
79	C	0.134383	0.568895	0.631726
80	C	0.098277	0.550777	0.630622
81	C	0.079832	0.541414	0.67207
82	C	0.098148	0.550464	0.379864
83	H	0.147762	0.575701	0.602049
84	C	0.133974	0.568417	0.380286
85	H	0.085471	0.544034	0.410075
86	H	0.146411	0.574578	0.410659
87	C	0.08039	0.541907	0.586323
88	H	0.097924	0.550746	0.557727
89	H	0.064365	0.553435	0.583638
90	H	0.064435	0.51437	0.583456
91	C	0.043521	0.523283	0.673681
92	C	0.025219	0.540969	0.673711
93	C	0.025172	0.987307	0.673732
94	H	0.038184	0.974269	0.67309
95	H	0.038261	0.567009	0.673093
96	C	0.152585	0.5779	0.00621
97	C	0.134383	0.568895	0.965063
98	C	0.098277	0.550777	0.963958
99	C	0.079832	0.541414	0.005406
100	C	0.098148	0.550464	0.713197
101	H	0.147762	0.575701	0.935382
102	C	0.133974	0.568417	0.713622
103	H	0.085471	0.544034	0.743408
104	H	0.146411	0.574578	0.743996
105	C	0.08039	0.541907	0.919656
106	H	0.097924	0.550746	0.89106
107	H	0.064365	0.553435	0.916971
108	H	0.064435	0.51437	0.916789
109	C	0.243176	0.096359	0.006847
110	C	0.242892	0.150531	0.006011
111	C	0.206942	0.132217	0.006163
112	C	0.188812	0.096137	0.006514
113	C	0.207222	0.07846	0.006931
114	H	0.193954	0.145266	0.006068
115	H	0.194448	0.052438	0.007411
116	H	0.238974	0.062651	0.096807
117	C	0.243176	0.096359	0.340179
118	C	0.242892	0.150531	0.339341
119	C	0.206942	0.132217	0.339493
120	C	0.188812	0.096137	0.339848
121	C	0.207222	0.07846	0.340263
122	H	0.193954	0.145266	0.339402
123	H	0.194448	0.052438	0.340743
124	H	0.238974	0.062651	0.430141
125	C	0.243176	0.096359	0.673515
126	C	0.242892	0.150531	0.672674
127	C	0.206942	0.132217	0.67283
128	C	0.188812	0.096137	0.673181
129	C	0.207222	0.07846	0.6736
130	H	0.193954	0.145266	0.672735
131	H	0.194448	0.052438	0.674079
132	H	0.238974	0.062651	0.763473
133	C	0.243176	0.596359	0.006847
134	C	0.242892	0.650531	0.006011
135	C	0.206942	0.632217	0.006163
136	C	0.188812	0.596138	0.006514
137	C	0.207222	0.578459	0.006931
138	H	0.193955	0.645268	0.006068
139	H	0.194448	0.552439	0.007411
140	H	0.238973	0.562651	0.096807
141	C	0.243176	0.596359	0.340179
142	C	0.242892	0.650531	0.339341
143	C	0.206942	0.632217	0.339493
144	C	0.188812	0.596138	0.339848
145	C	0.207222	0.578459	0.340263
146	H	0.193955	0.645268	0.339402
147	H	0.194448	0.552439	0.340743
148	H	0.238973	0.562651	0.430141
149	C	0.243176	0.596359	0.673515
150	C	0.242892	0.650531	0.672674
151	C	0.206942	0.632217	0.67283
152	C	0.188812	0.596138	0.673181
153	C	0.207222	0.578459	0.6736
154	H	0.193955	0.645268	0.672735
155	H	0.194448	0.552439	0.674079
156	H	0.238973	0.562651	0.763473
157	C	0.260454	0.132214	0.006183
158	H	0.286578	0.145359	0.006345
159	C	0.279153	0.079361	0.049316
160	C	0.263615	0.080636	0.008064
161	C	0.278255	0.078757	0.300079
162	H	0.269138	0.082326	0.27015
163	C	0.265613	0.082407	0.093832
164	H	0.279331	0.079563	0.122237
165	H	0.26746	0.107219	0.096828
166	C	0.262988	0.186633	0.00648
167	C	0.27794	0.202728	0.04787
168	H	0.267873	0.189592	0.077276
169	C	0.278793	0.20356	0.299308
170	H	0.270221	0.191357	0.268985
171	C	0.260454	0.132214	0.339514
172	H	0.286578	0.145359	0.339676
173	C	0.279153	0.079361	0.38265
174	C	0.263615	0.080636	0.341398
175	C	0.278255	0.078757	0.633412
176	H	0.269138	0.082326	0.603484
177	C	0.265613	0.082407	0.427165
178	H	0.279331	0.079563	0.455569
179	H	0.26746	0.107219	0.430161
180	C	0.262988	0.186633	0.339814
181	C	0.27794	0.202728	0.381205
182	H	0.267873	0.189592	0.410609
183	C	0.278793	0.20356	0.632642
184	H	0.270221	0.191357	0.602319
185	C	0.260454	0.132214	0.672847
186	H	0.286578	0.145359	0.673012
187	C	0.279153	0.079361	0.715983
188	C	0.263615	0.080636	0.674731
189	C	0.278255	0.078757	0.966748
190	H	0.269138	0.082326	0.936817
191	C	0.265613	0.082407	0.760498
192	H	0.279331	0.079563	0.788906
193	H	0.26746	0.107219	0.763494
194	C	0.262988	0.186633	0.673147
195	C	0.27794	0.202728	0.714538
196	H	0.267873	0.189592	0.743942
197	C	0.278793	0.20356	0.965975
198	H	0.270221	0.191357	0.935652
199	C	0.260454	0.632215	0.006183
200	H	0.286577	0.645359	0.006345
201	C	0.279153	0.579361	0.049316
202	C	0.263615	0.580637	0.008064
203	C	0.278254	0.578756	0.300079
204	H	0.269139	0.582327	0.27015
205	C	0.265613	0.582406	0.093832
206	H	0.279331	0.579562	0.122237
207	H	0.26746	0.607219	0.096828
208	C	0.262988	0.686633	0.00648
209	C	0.27794	0.702729	0.04787
210	H	0.267873	0.689592	0.077276
211	C	0.278792	0.70356	0.299308
212	H	0.270222	0.691358	0.268985
213	C	0.260454	0.632215	0.339514
214	H	0.286577	0.645359	0.339676
215	C	0.279153	0.579361	0.38265
216	C	0.263615	0.580637	0.341398
217	C	0.278254	0.578756	0.633412
218	H	0.269139	0.582327	0.603484
219	C	0.265613	0.582406	0.427165
220	H	0.279331	0.579562	0.455569
221	H	0.26746	0.607219	0.430161
222	C	0.262988	0.686633	0.339814
223	C	0.27794	0.702729	0.381205
224	H	0.267873	0.689592	0.410609
225	C	0.278792	0.70356	0.632642
226	H	0.270222	0.691358	0.602319
227	C	0.260454	0.632215	0.672847
228	H	0.286577	0.645359	0.673012
229	C	0.279153	0.579361	0.715983
230	C	0.263615	0.580637	0.674731
231	C	0.278254	0.578756	0.966748
232	H	0.269139	0.582327	0.936817
233	C	0.265613	0.582406	0.760498
234	H	0.279331	0.579562	0.788906
235	H	0.26746	0.607219	0.763494
236	C	0.262988	0.686633	0.673147
237	C	0.27794	0.702729	0.714538
238	H	0.267873	0.689592	0.743942
239	C	0.278792	0.70356	0.965975
240	H	0.270222	0.691358	0.935652
241	C	0.489228	0.02334	0.006994
242	C	0.471538	0.487363	0.00703
243	C	0.48918	0.469016	0.007001
244	H	0.445486	0.474366	0.006399
245	C	0.416364	0.150089	0.006831
246	C	0.38049	0.131523	0.006183
247	C	0.362157	0.095659	0.00597
248	C	0.380464	0.078021	0.006092
249	C	0.416559	0.095953	0.00647
250	C	0.434257	0.132027	0.006936
251	H	0.367401	0.051994	0.005977
252	H	0.46029	0.14526	0.007471
253	H	0.367346	0.1445	0.006413
254	C	0.362506	0.269469	0.006794
255	C	0.38108	0.252169	0.006203
256	C	0.41696	0.26969	0.006004
257	C	0.434608	0.305625	0.006146
258	C	0.41667	0.323781	0.006436
259	C	0.380577	0.305409	0.006847
260	H	0.460646	0.318581	0.006102
261	H	0.367338	0.3182	0.007326
262	H	0.368093	0.226059	0.006473
263	C	0.434776	0.077944	0.339507
264	C	0.443791	0.068754	0.298361
265	C	0.461837	0.0507	0.297263
266	C	0.471105	0.041527	0.338713
267	C	0.46204	0.05078	0.046504
268	H	0.43704	0.075382	0.268679
269	C	0.444157	0.068721	0.046922
270	H	0.468412	0.044479	0.076718
271	H	0.437977	0.074978	0.077293
272	C	0.47073	0.041702	0.252964
273	H	0.461948	0.05045	0.224367
274	H	0.459152	0.014158	0.250235
275	H	0.498278	0.053236	0.250148
276	C	0.434678	0.359995	0.339483
277	C	0.443863	0.3782	0.298342
278	C	0.461877	0.41429	0.297255
279	C	0.471003	0.432718	0.33871
280	C	0.461749	0.414399	0.046493
281	H	0.437263	0.364834	0.268657
282	C	0.443853	0.378589	0.0469
283	H	0.468023	0.427063	0.07671
284	H	0.437587	0.366151	0.077269
285	C	0.470883	0.43218	0.252961
286	H	0.462169	0.414661	0.224359
287	H	0.498439	0.448173	0.250259
288	H	0.459311	0.448156	0.250128
289	C	0.326042	0.079652	0.006446
290	C	0.309934	0.078488	0.047833
291	H	0.323075	0.081633	0.077257
292	C	0.3091	0.078484	0.299269
293	H	0.321303	0.082097	0.268947
294	C	0.432958	0.249579	0.006709
295	C	0.43419	0.234637	0.048023
296	C	0.433444	0.203062	0.04949
297	C	0.432122	0.186238	0.008261
298	C	0.433838	0.202688	0.300252
299	H	0.431227	0.244725	0.07748
300	C	0.433943	0.233716	0.299502
301	H	0.430109	0.189995	0.270301
302	H	0.430299	0.242262	0.269158
303	C	0.430468	0.186484	0.093979
304	H	0.433283	0.203013	0.122403
305	H	0.450282	0.179671	0.096905
306	H	0.405677	0.163485	0.096979
307	C	0.309538	0.233541	0.049386
308	C	0.326332	0.24908	0.008157
309	C	0.309914	0.234382	0.300139
310	H	0.322559	0.24349	0.27018
311	C	0.326115	0.247066	0.0939
312	H	0.309566	0.23332	0.122299
313	H	0.332944	0.273681	0.096903
314	H	0.349115	0.245258	0.096871
315	C	0.489228	0.02334	0.340328
316	C	0.471538	0.487363	0.340365
317	C	0.48918	0.469016	0.340334
318	H	0.445486	0.474366	0.339733
319	C	0.416364	0.150089	0.340166
320	C	0.38049	0.131523	0.339514
321	C	0.362157	0.095659	0.339304
322	C	0.380464	0.078021	0.339426
323	C	0.416559	0.095953	0.339804
324	C	0.434257	0.132027	0.34027
325	H	0.367401	0.051994	0.339311
326	H	0.46029	0.14526	0.340804
327	H	0.367346	0.1445	0.339743
328	C	0.362506	0.269469	0.340128
329	C	0.38108	0.252169	0.339537
330	C	0.41696	0.26969	0.339338
331	C	0.434608	0.305625	0.339477
332	C	0.41667	0.323781	0.33977
333	C	0.380577	0.305409	0.340182
334	H	0.460646	0.318581	0.339433
335	H	0.367338	0.3182	0.340659
336	H	0.368093	0.226059	0.339808
337	C	0.434776	0.077944	0.67284
338	C	0.443791	0.068754	0.631696
339	C	0.461837	0.0507	0.630598
340	C	0.471105	0.041527	0.672046
341	C	0.46204	0.05078	0.379837
342	H	0.43704	0.075382	0.602012
343	C	0.444157	0.068721	0.380256
344	H	0.468412	0.044479	0.410052
345	H	0.437977	0.074978	0.410626
346	C	0.47073	0.041702	0.586296
347	H	0.461948	0.05045	0.5577
348	H	0.459152	0.014158	0.583567
349	H	0.498278	0.053236	0.583483
350	C	0.434678	0.359995	0.672816
351	C	0.443863	0.3782	0.631676
352	C	0.461877	0.41429	0.630588
353	C	0.471003	0.432718	0.672043
354	C	0.461749	0.414399	0.379827
355	H	0.437263	0.364834	0.601991
356	C	0.443853	0.378589	0.380235
357	H	0.468023	0.427063	0.410045
358	H	0.437587	0.366151	0.410602
359	C	0.470883	0.43218	0.586296
360	H	0.462169	0.414661	0.557693
361	H	0.498439	0.448173	0.583591
362	H	0.459311	0.448156	0.583463
363	C	0.326042	0.079652	0.339781
364	C	0.309934	0.078488	0.381168
365	H	0.323075	0.081633	0.410592
366	C	0.3091	0.078484	0.632604
367	H	0.321303	0.082097	0.602282
368	C	0.432958	0.249579	0.340044
369	C	0.43419	0.234637	0.381357
370	C	0.433444	0.203062	0.382823
371	C	0.432122	0.186238	0.341594
372	C	0.433838	0.202688	0.633584
373	H	0.431227	0.244725	0.410815
374	C	0.433943	0.233716	0.632834
375	H	0.430109	0.189995	0.603636
376	H	0.430299	0.242262	0.602491
377	C	0.430468	0.186484	0.427314
378	H	0.433283	0.203013	0.455738
379	H	0.450282	0.179671	0.430238
380	H	0.405677	0.163485	0.430313
381	C	0.309538	0.233541	0.382718
382	C	0.326332	0.24908	0.341489
383	C	0.309914	0.234382	0.633472
384	H	0.322559	0.24349	0.603515
385	C	0.326115	0.247066	0.427233
386	H	0.309566	0.23332	0.455633
387	H	0.332944	0.273681	0.430235
388	H	0.349115	0.245258	0.430205
389	C	0.489228	0.02334	0.673661
390	C	0.471538	0.487363	0.673698
391	C	0.48918	0.469016	0.673667
392	H	0.445486	0.474366	0.673066
393	C	0.416364	0.150089	0.673499
394	C	0.38049	0.131523	0.67285
395	C	0.362157	0.095659	0.672637
396	C	0.380464	0.078021	0.672759
397	C	0.416559	0.095953	0.673137
398	C	0.434257	0.132027	0.673603
399	H	0.367401	0.051994	0.672644
400	H	0.46029	0.14526	0.674137
401	H	0.367346	0.1445	0.67308
402	C	0.362506	0.269469	0.673461
403	C	0.38108	0.252169	0.67287
404	C	0.41696	0.26969	0.672671
405	C	0.434608	0.305625	0.67281
406	C	0.41667	0.323781	0.673103
407	C	0.380577	0.305409	0.673515
408	H	0.460646	0.318581	0.672769
409	H	0.367338	0.3182	0.673992
410	H	0.368093	0.226059	0.67314
411	C	0.434776	0.077944	0.006173
412	C	0.443791	0.068754	0.965029
413	C	0.461837	0.0507	0.963931
414	C	0.471105	0.041527	0.005383
415	C	0.46204	0.05078	0.71317
416	H	0.43704	0.075382	0.935348
417	C	0.444157	0.068721	0.713589
418	H	0.468412	0.044479	0.743384
419	H	0.437977	0.074978	0.743962
420	C	0.47073	0.041702	0.919633
421	H	0.461948	0.05045	0.891033
422	H	0.459152	0.014158	0.916904
423	H	0.498278	0.053236	0.916816
424	C	0.434678	0.359995	0.006149
425	C	0.443863	0.3782	0.965009
426	C	0.461877	0.41429	0.963921
427	C	0.471003	0.432718	0.005376
428	C	0.461749	0.414399	0.71316
429	H	0.437263	0.364834	0.935324
430	C	0.443853	0.378589	0.713568
431	H	0.468023	0.427063	0.743378
432	H	0.437587	0.366151	0.743935
433	C	0.470883	0.43218	0.919629
434	H	0.462169	0.414661	0.891026
435	H	0.498439	0.448173	0.916927
436	H	0.459311	0.448156	0.916796
437	C	0.326042	0.079652	0.673113
438	C	0.309934	0.078488	0.714501
439	H	0.323075	0.081633	0.743925
440	C	0.3091	0.078484	0.965937
441	H	0.321303	0.082097	0.935615
442	C	0.432958	0.249579	0.673377
443	C	0.43419	0.234637	0.71469
444	C	0.433444	0.203062	0.716159
445	C	0.432122	0.186238	0.674927
446	C	0.433838	0.202688	0.96692
447	H	0.431227	0.244725	0.744148
448	C	0.433943	0.233716	0.96617
449	H	0.430109	0.189995	0.936969
450	H	0.430299	0.242262	0.935824
451	C	0.430468	0.186484	0.760647
452	H	0.433283	0.203013	0.789071
453	H	0.450282	0.179671	0.763571
454	H	0.405677	0.163485	0.763646
455	C	0.309538	0.233541	0.716054
456	C	0.326332	0.24908	0.674826
457	C	0.309914	0.234382	0.966805
458	H	0.322559	0.24349	0.936848
459	C	0.326115	0.247066	0.760569
460	H	0.309566	0.23332	0.788966
461	H	0.332944	0.273681	0.763571
462	H	0.349115	0.245258	0.763538
463	C	0.489228	0.523341	0.006994
464	C	0.471538	0.987366	0.00703
465	C	0.489179	0.969016	0.007001
466	H	0.445486	0.974366	0.006399
467	C	0.416365	0.650089	0.006831
468	C	0.380491	0.631523	0.006183
469	C	0.362157	0.59566	0.00597
470	C	0.380465	0.578022	0.006092
471	C	0.416559	0.595952	0.00647
472	C	0.434256	0.632026	0.006936
473	H	0.3674	0.551994	0.005977
474	H	0.46029	0.64526	0.007471
475	H	0.367346	0.6445	0.006413
476	C	0.362506	0.769469	0.006794
477	C	0.381078	0.752169	0.006203
478	C	0.41696	0.76969	0.006004
479	C	0.434608	0.805625	0.006146
480	C	0.41667	0.823781	0.006436
481	C	0.380578	0.805409	0.006847
482	H	0.460647	0.818584	0.006102
483	H	0.367339	0.818203	0.007326
484	H	0.368092	0.72606	0.006473
485	C	0.434774	0.577943	0.339507
486	C	0.44379	0.568755	0.298361
487	C	0.461838	0.550701	0.297263
488	C	0.471106	0.541528	0.338713
489	C	0.462042	0.550782	0.046504
490	H	0.43704	0.575381	0.268679
491	C	0.444158	0.568722	0.046922
492	H	0.468413	0.544479	0.076718
493	H	0.437977	0.57498	0.077293
494	C	0.47073	0.541704	0.252964
495	H	0.461946	0.550449	0.224367
496	H	0.459151	0.514159	0.250235
497	H	0.49828	0.553237	0.250148
498	C	0.434677	0.859995	0.339483
499	C	0.443863	0.8782	0.298342
500	C	0.461878	0.91429	0.297255
501	C	0.471004	0.932721	0.33871
502	C	0.46175	0.914399	0.046493
503	H	0.437263	0.864834	0.268657
504	C	0.443852	0.878589	0.0469
505	H	0.468022	0.927063	0.07671
506	H	0.437587	0.866151	0.077269
507	C	0.470883	0.932179	0.252961
508	H	0.462169	0.914661	0.224359
509	H	0.498438	0.948173	0.250259
510	H	0.459311	0.948155	0.250128
511	C	0.326043	0.579653	0.006446
512	C	0.309934	0.578487	0.047833
513	H	0.323076	0.581633	0.077257
514	C	0.309099	0.578484	0.299269
515	H	0.321304	0.582098	0.268947
516	C	0.432959	0.749579	0.006709
517	C	0.434189	0.734638	0.048023
518	C	0.433444	0.703062	0.04949
519	C	0.432121	0.686237	0.008261
520	C	0.433839	0.702688	0.300252
521	H	0.431227	0.744725	0.07748
522	C	0.433944	0.733718	0.299502
523	H	0.430109	0.689996	0.270301
524	H	0.430298	0.742262	0.269158
525	C	0.430467	0.686484	0.093979
526	H	0.433284	0.703014	0.122403
527	H	0.450282	0.679672	0.096905
528	H	0.405676	0.663485	0.096979
529	C	0.309538	0.733542	0.049386
530	C	0.326332	0.749081	0.008157
531	C	0.309914	0.734383	0.300139
532	H	0.322559	0.74349	0.27018
533	C	0.326115	0.747066	0.0939
534	H	0.309566	0.733321	0.122299
535	H	0.332944	0.77368	0.096903
536	H	0.349115	0.745259	0.096871
537	C	0.489228	0.523341	0.340328
538	C	0.471538	0.987366	0.340365
539	C	0.489179	0.969016	0.340334
540	H	0.445486	0.974366	0.339733
541	C	0.416365	0.650089	0.340166
542	C	0.380491	0.631523	0.339514
543	C	0.362157	0.59566	0.339304
544	C	0.380465	0.578022	0.339426
545	C	0.416559	0.595952	0.339804
546	C	0.434256	0.632026	0.34027
547	H	0.3674	0.551994	0.339311
548	H	0.46029	0.64526	0.340804
549	H	0.367346	0.6445	0.339743
550	C	0.362506	0.769469	0.340128
551	C	0.381078	0.752169	0.339537
552	C	0.41696	0.76969	0.339338
553	C	0.434608	0.805625	0.339477
554	C	0.41667	0.823781	0.33977
555	C	0.380578	0.805409	0.340182
556	H	0.460647	0.818584	0.339433
557	H	0.367339	0.818203	0.340659
558	H	0.368092	0.72606	0.339808
559	C	0.434774	0.577943	0.67284
560	C	0.44379	0.568755	0.631696
561	C	0.461838	0.550701	0.630598
562	C	0.471106	0.541528	0.672046
563	C	0.462042	0.550782	0.379837
564	H	0.43704	0.575381	0.602012
565	C	0.444158	0.568722	0.380256
566	H	0.468413	0.544479	0.410052
567	H	0.437977	0.57498	0.410626
568	C	0.47073	0.541704	0.586296
569	H	0.461946	0.550449	0.5577
570	H	0.459151	0.514159	0.583567
571	H	0.49828	0.553237	0.583483
572	C	0.434677	0.859995	0.672816
573	C	0.443863	0.8782	0.631676
574	C	0.461878	0.91429	0.630588
575	C	0.471004	0.932721	0.672043
576	C	0.46175	0.914399	0.379827
577	H	0.437263	0.864834	0.601991
578	C	0.443852	0.878589	0.380235
579	H	0.468022	0.927063	0.410045
580	H	0.437587	0.866151	0.410602
581	C	0.470883	0.932179	0.586296
582	H	0.462169	0.914661	0.557693
583	H	0.498438	0.948173	0.583591
584	H	0.459311	0.948155	0.583463
585	C	0.326043	0.579653	0.339781
586	C	0.309934	0.578487	0.381168
587	H	0.323076	0.581633	0.410592
588	C	0.309099	0.578484	0.632604
589	H	0.321304	0.582098	0.602282
590	C	0.432959	0.749579	0.340044
591	C	0.434189	0.734638	0.381357
592	C	0.433444	0.703062	0.382823
593	C	0.432121	0.686237	0.341594
594	C	0.433839	0.702688	0.633584
595	H	0.431227	0.744725	0.410815
596	C	0.433944	0.733718	0.632834
597	H	0.430109	0.689996	0.603636
598	H	0.430298	0.742262	0.602491
599	C	0.430467	0.686484	0.427314
600	H	0.433284	0.703014	0.455738
601	H	0.450282	0.679672	0.430238
602	H	0.405676	0.663485	0.430313
603	C	0.309538	0.733542	0.382718
604	C	0.326332	0.749081	0.341489
605	C	0.309914	0.734383	0.633472
606	H	0.322559	0.74349	0.603515
607	C	0.326115	0.747066	0.427233
608	H	0.309566	0.733321	0.455633
609	H	0.332944	0.77368	0.430235
610	H	0.349115	0.745259	0.430205
611	C	0.489228	0.523341	0.673661
612	C	0.471538	0.987366	0.673698
613	C	0.489179	0.969016	0.673667
614	H	0.445486	0.974366	0.673066
615	C	0.416365	0.650089	0.673499
616	C	0.380491	0.631523	0.67285
617	C	0.362157	0.59566	0.672637
618	C	0.380465	0.578022	0.672759
619	C	0.416559	0.595952	0.673137
620	C	0.434256	0.632026	0.673603
621	H	0.3674	0.551994	0.672644
622	H	0.46029	0.64526	0.674137
623	H	0.367346	0.6445	0.67308
624	C	0.362506	0.769469	0.673461
625	C	0.381078	0.752169	0.67287
626	C	0.41696	0.76969	0.672671
627	C	0.434608	0.805625	0.67281
628	C	0.41667	0.823781	0.673103
629	C	0.380578	0.805409	0.673515
630	H	0.460647	0.818584	0.672769
631	H	0.367339	0.818203	0.673992
632	H	0.368092	0.72606	0.67314
633	C	0.434774	0.577943	0.006173
634	C	0.44379	0.568755	0.965029
635	C	0.461838	0.550701	0.963931
636	C	0.471106	0.541528	0.005383
637	C	0.462042	0.550782	0.71317
638	H	0.43704	0.575381	0.935348
639	C	0.444158	0.568722	0.713589
640	H	0.468413	0.544479	0.743384
641	H	0.437977	0.57498	0.743962
642	C	0.47073	0.541704	0.919633
643	H	0.461946	0.550449	0.891033
644	H	0.459151	0.514159	0.916904
645	H	0.49828	0.553237	0.916816
646	C	0.434677	0.859995	0.006149
647	C	0.443863	0.8782	0.965009
648	C	0.461878	0.91429	0.963921
649	C	0.471004	0.932721	0.005376
650	C	0.46175	0.914399	0.71316
651	H	0.437263	0.864834	0.935324
652	C	0.443852	0.878589	0.713568
653	H	0.468022	0.927063	0.743378
654	H	0.437587	0.866151	0.743935
655	C	0.470883	0.932179	0.919629
656	H	0.462169	0.914661	0.891026
657	H	0.498438	0.948173	0.916927
658	H	0.459311	0.948155	0.916796
659	C	0.326043	0.579653	0.673113
660	C	0.309934	0.578487	0.714501
661	H	0.323076	0.581633	0.743925
662	C	0.309099	0.578484	0.965937
663	H	0.321304	0.582098	0.935615
664	C	0.432959	0.749579	0.673377
665	C	0.434189	0.734638	0.71469
666	C	0.433444	0.703062	0.716159
667	C	0.432121	0.686237	0.674927
668	C	0.433839	0.702688	0.96692
669	H	0.431227	0.744725	0.744148
670	C	0.433944	0.733718	0.96617
671	H	0.430109	0.689996	0.936969
672	H	0.430298	0.742262	0.935824
673	C	0.430467	0.686484	0.760647
674	H	0.433284	0.703014	0.789071
675	H	0.450282	0.679672	0.763571
676	H	0.405676	0.663485	0.763646
677	C	0.309538	0.733542	0.716054
678	C	0.326332	0.749081	0.674826
679	C	0.309914	0.734383	0.966805
680	H	0.322559	0.74349	0.936848
681	C	0.326115	0.747066	0.760569
682	H	0.309566	0.733321	0.788966
683	H	0.332944	0.77368	0.763571
684	H	0.349115	0.745259	0.763538
685	C	0.543521	0.023282	0.007013
686	C	0.525217	0.040968	0.007045
687	C	0.989228	0.02334	0.006994
688	C	0.971538	0.487363	0.00703
689	C	0.98918	0.469016	0.007001
690	C	0.525173	0.487308	0.007065
691	H	0.945487	0.474366	0.006399
692	H	0.538185	0.47427	0.006423
693	H	0.538261	0.067008	0.006426
694	C	0.743176	0.096359	0.006847
695	C	0.760454	0.132214	0.006183
696	C	0.742894	0.150531	0.006011
697	C	0.706942	0.132217	0.006163
698	C	0.688812	0.096137	0.006514
699	C	0.707223	0.07846	0.006931
700	H	0.693955	0.145266	0.006068
701	H	0.694448	0.052438	0.007411
702	H	0.786577	0.145359	0.006345
703	C	0.916364	0.150089	0.006831
704	C	0.880492	0.131523	0.006183
705	C	0.862157	0.095659	0.00597
706	C	0.880466	0.078021	0.006092
707	C	0.916559	0.095953	0.00647
708	C	0.934257	0.132027	0.006936
709	H	0.867401	0.051994	0.005977
710	H	0.96029	0.14526	0.007471
711	H	0.867346	0.1445	0.006413
712	C	0.862506	0.269469	0.006794
713	C	0.88108	0.252169	0.006203
714	C	0.91696	0.26969	0.006004
715	C	0.934608	0.305625	0.006146
716	C	0.91667	0.323781	0.006436
717	C	0.880579	0.305409	0.006847
718	H	0.960646	0.318581	0.006102
719	H	0.867338	0.3182	0.007326
720	H	0.868093	0.226059	0.006473
721	C	0.652586	0.077899	0.339544
722	C	0.634383	0.068895	0.298394
723	C	0.598279	0.050777	0.29729
724	C	0.579832	0.041414	0.338737
725	C	0.598148	0.050464	0.04653
726	H	0.647763	0.075702	0.268714
727	C	0.633975	0.068418	0.046954
728	H	0.585472	0.044035	0.076742
729	H	0.64641	0.074577	0.077327
730	C	0.580392	0.041907	0.252988
731	H	0.597924	0.050747	0.224394
732	H	0.564364	0.053434	0.250304
733	H	0.564436	0.014369	0.250123
734	C	0.934776	0.077944	0.339507
735	C	0.943791	0.068754	0.298361
736	C	0.961839	0.0507	0.297263
737	C	0.971107	0.041527	0.338713
738	C	0.962043	0.05078	0.046504
739	H	0.93704	0.075382	0.268679
740	C	0.944157	0.068721	0.046922
741	H	0.968414	0.044479	0.076718
742	H	0.937977	0.074978	0.077293
743	C	0.97073	0.041702	0.252964
744	H	0.961948	0.05045	0.224367
745	H	0.959152	0.014158	0.250235
746	H	0.998278	0.053236	0.250148
747	C	0.934678	0.359995	0.339483
748	C	0.943863	0.3782	0.298342
749	C	0.961877	0.41429	0.297255
750	C	0.971003	0.432718	0.33871
751	C	0.961752	0.414399	0.046493
752	H	0.937263	0.364834	0.268657
753	C	0.943853	0.378589	0.0469
754	H	0.968023	0.427063	0.07671
755	H	0.937587	0.366151	0.077269
756	C	0.970883	0.43218	0.252961
757	H	0.962169	0.414661	0.224359
758	H	0.998439	0.448173	0.250259
759	H	0.959311	0.448156	0.250128
760	C	0.826042	0.079652	0.006446
761	C	0.809936	0.078488	0.047833
762	C	0.779153	0.079361	0.049316
763	C	0.763615	0.080636	0.008064
764	C	0.778255	0.078757	0.300079
765	H	0.823078	0.081633	0.077257
766	C	0.8091	0.078484	0.299269
767	H	0.769138	0.082326	0.27015
768	H	0.821303	0.082097	0.268947
769	C	0.765613	0.082407	0.093832
770	H	0.779331	0.079563	0.122237
771	H	0.738974	0.062651	0.096807
772	H	0.76746	0.107219	0.096828
773	C	0.932961	0.249579	0.006709
774	C	0.93419	0.234637	0.048023
775	C	0.933444	0.203062	0.04949
776	C	0.932122	0.186238	0.008261
777	C	0.933838	0.202688	0.300252
778	H	0.931227	0.244725	0.07748
779	C	0.933943	0.233716	0.299502
780	H	0.930109	0.189995	0.270301
781	H	0.930299	0.242262	0.269158
782	C	0.930468	0.186484	0.093979
783	H	0.933283	0.203013	0.122403
784	H	0.950282	0.179671	0.096905
785	H	0.905677	0.163485	0.096979
786	C	0.762988	0.186633	0.00648
787	C	0.777941	0.202728	0.04787
788	C	0.809539	0.233541	0.049386
789	C	0.826332	0.24908	0.008157
790	C	0.809915	0.234382	0.300139
791	H	0.767873	0.189592	0.077276
792	C	0.778793	0.20356	0.299308
793	H	0.822559	0.24349	0.27018
794	H	0.770222	0.191357	0.268985
795	C	0.826115	0.247066	0.0939
796	H	0.809567	0.23332	0.122299
797	H	0.832945	0.273681	0.096903
798	H	0.849115	0.245258	0.096871
799	C	0.543521	0.023282	0.340348
800	C	0.525217	0.040968	0.340378
801	C	0.989228	0.02334	0.340328
802	C	0.971538	0.487363	0.340365
803	C	0.98918	0.469016	0.340334
804	C	0.525173	0.487308	0.340399
805	H	0.945487	0.474366	0.339733
806	H	0.538185	0.47427	0.339757
807	H	0.538261	0.067008	0.33976
808	C	0.743176	0.096359	0.340179
809	C	0.760454	0.132214	0.339514
810	C	0.742894	0.150531	0.339341
811	C	0.706942	0.132217	0.339493
812	C	0.688812	0.096137	0.339848
813	C	0.707223	0.07846	0.340263
814	H	0.693955	0.145266	0.339402
815	H	0.694448	0.052438	0.340743
816	H	0.786577	0.145359	0.339676
817	C	0.916364	0.150089	0.340166
818	C	0.880492	0.131523	0.339514
819	C	0.862157	0.095659	0.339304
820	C	0.880466	0.078021	0.339426
821	C	0.916559	0.095953	0.339804
822	C	0.934257	0.132027	0.34027
823	H	0.867401	0.051994	0.339311
824	H	0.96029	0.14526	0.340804
825	H	0.867346	0.1445	0.339743
826	C	0.862506	0.269469	0.340128
827	C	0.88108	0.252169	0.339537
828	C	0.91696	0.26969	0.339338
829	C	0.934608	0.305625	0.339477
830	C	0.91667	0.323781	0.33977
831	C	0.880579	0.305409	0.340182
832	H	0.960646	0.318581	0.339433
833	H	0.867338	0.3182	0.340659
834	H	0.868093	0.226059	0.339808
835	C	0.652586	0.077899	0.672877
836	C	0.634383	0.068895	0.631726
837	C	0.598279	0.050777	0.630622
838	C	0.579832	0.041414	0.67207
839	C	0.598148	0.050464	0.379864
840	H	0.647763	0.075702	0.602049
841	C	0.633975	0.068418	0.380286
842	H	0.585472	0.044035	0.410075
843	H	0.64641	0.074577	0.410659
844	C	0.580392	0.041907	0.586323
845	H	0.597924	0.050747	0.557727
846	H	0.564364	0.053434	0.583638
847	H	0.564436	0.014369	0.583456
848	C	0.934776	0.077944	0.67284
849	C	0.943791	0.068754	0.631696
850	C	0.961839	0.0507	0.630598
851	C	0.971107	0.041527	0.672046
852	C	0.962043	0.05078	0.379837
853	H	0.93704	0.075382	0.602012
854	C	0.944157	0.068721	0.380256
855	H	0.968414	0.044479	0.410052
856	H	0.937977	0.074978	0.410626
857	C	0.97073	0.041702	0.586296
858	H	0.961948	0.05045	0.5577
859	H	0.959152	0.014158	0.583567
860	H	0.998278	0.053236	0.583483
861	C	0.934678	0.359995	0.672816
862	C	0.943863	0.3782	0.631676
863	C	0.961877	0.41429	0.630588
864	C	0.971003	0.432718	0.672043
865	C	0.961752	0.414399	0.379827
866	H	0.937263	0.364834	0.601991
867	C	0.943853	0.378589	0.380235
868	H	0.968023	0.427063	0.410045
869	H	0.937587	0.366151	0.410602
870	C	0.970883	0.43218	0.586296
871	H	0.962169	0.414661	0.557693
872	H	0.998439	0.448173	0.583591
873	H	0.959311	0.448156	0.583463
874	C	0.826042	0.079652	0.339781
875	C	0.809936	0.078488	0.381168
876	C	0.779153	0.079361	0.38265
877	C	0.763615	0.080636	0.341398
878	C	0.778255	0.078757	0.633412
879	H	0.823078	0.081633	0.410592
880	C	0.8091	0.078484	0.632604
881	H	0.769138	0.082326	0.603484
882	H	0.821303	0.082097	0.602282
883	C	0.765613	0.082407	0.427165
884	H	0.779331	0.079563	0.455569
885	H	0.738974	0.062651	0.430141
886	H	0.76746	0.107219	0.430161
887	C	0.932961	0.249579	0.340044
888	C	0.93419	0.234637	0.381357
889	C	0.933444	0.203062	0.382823
890	C	0.932122	0.186238	0.341594
891	C	0.933838	0.202688	0.633584
892	H	0.931227	0.244725	0.410815
893	C	0.933943	0.233716	0.632834
894	H	0.930109	0.189995	0.603636
895	H	0.930299	0.242262	0.602491
896	C	0.930468	0.186484	0.427314
897	H	0.933283	0.203013	0.455738
898	H	0.950282	0.179671	0.430238
899	H	0.905677	0.163485	0.430313
900	C	0.762988	0.186633	0.339814
901	C	0.777941	0.202728	0.381205
902	C	0.809539	0.233541	0.382718
903	C	0.826332	0.24908	0.341489
904	C	0.809915	0.234382	0.633472
905	H	0.767873	0.189592	0.410609
906	C	0.778793	0.20356	0.632642
907	H	0.822559	0.24349	0.603515
908	H	0.770222	0.191357	0.602319
909	C	0.826115	0.247066	0.427233
910	H	0.809567	0.23332	0.455633
911	H	0.832945	0.273681	0.430235
912	H	0.849115	0.245258	0.430205
913	C	0.543521	0.023282	0.673681
914	C	0.525217	0.040968	0.673711
915	C	0.989228	0.02334	0.673661
916	C	0.971538	0.487363	0.673698
917	C	0.98918	0.469016	0.673667
918	C	0.525173	0.487308	0.673732
919	H	0.945487	0.474366	0.673066
920	H	0.538185	0.47427	0.67309
921	H	0.538261	0.067008	0.673093
922	C	0.743176	0.096359	0.673515
923	C	0.760454	0.132214	0.672847
924	C	0.742894	0.150531	0.672674
925	C	0.706942	0.132217	0.67283
926	C	0.688812	0.096137	0.673181
927	C	0.707223	0.07846	0.6736
928	H	0.693955	0.145266	0.672735
929	H	0.694448	0.052438	0.674079
930	H	0.786577	0.145359	0.673012
931	C	0.916364	0.150089	0.673499
932	C	0.880492	0.131523	0.67285
933	C	0.862157	0.095659	0.672637
934	C	0.880466	0.078021	0.672759
935	C	0.916559	0.095953	0.673137
936	C	0.934257	0.132027	0.673603
937	H	0.867401	0.051994	0.672644
938	H	0.96029	0.14526	0.674137
939	H	0.867346	0.1445	0.67308
940	C	0.862506	0.269469	0.673461
941	C	0.88108	0.252169	0.67287
942	C	0.91696	0.26969	0.672671
943	C	0.934608	0.305625	0.67281
944	C	0.91667	0.323781	0.673103
945	C	0.880579	0.305409	0.673515
946	H	0.960646	0.318581	0.672769
947	H	0.867338	0.3182	0.673992
948	H	0.868093	0.226059	0.67314
949	C	0.652586	0.077899	0.00621
950	C	0.634383	0.068895	0.965063
951	C	0.598279	0.050777	0.963958
952	C	0.579832	0.041414	0.005406
953	C	0.598148	0.050464	0.713197
954	H	0.647763	0.075702	0.935382
955	C	0.633975	0.068418	0.713622
956	H	0.585472	0.044035	0.743408
957	H	0.64641	0.074577	0.743996
958	C	0.580392	0.041907	0.919656
959	H	0.597924	0.050747	0.89106
960	H	0.564364	0.053434	0.916971
961	H	0.564436	0.014369	0.916789
962	C	0.934776	0.077944	0.006173
963	C	0.943791	0.068754	0.965029
964	C	0.961839	0.0507	0.963931
965	C	0.971107	0.041527	0.005383
966	C	0.962043	0.05078	0.71317
967	H	0.93704	0.075382	0.935348
968	C	0.944157	0.068721	0.713589
969	H	0.968414	0.044479	0.743384
970	H	0.937977	0.074978	0.743962
971	C	0.97073	0.041702	0.919633
972	H	0.961948	0.05045	0.891033
973	H	0.959152	0.014158	0.916904
974	H	0.998278	0.053236	0.916816
975	C	0.934678	0.359995	0.006149
976	C	0.943863	0.3782	0.965009
977	C	0.961877	0.41429	0.963921
978	C	0.971003	0.432718	0.005376
979	C	0.961752	0.414399	0.71316
980	H	0.937263	0.364834	0.935324
981	C	0.943853	0.378589	0.713568
982	H	0.968023	0.427063	0.743378
983	H	0.937587	0.366151	0.743935
984	C	0.970883	0.43218	0.919629
985	H	0.962169	0.414661	0.891026
986	H	0.998439	0.448173	0.916927
987	H	0.959311	0.448156	0.916796
988	C	0.826042	0.079652	0.673113
989	C	0.809936	0.078488	0.714501
990	C	0.779153	0.079361	0.715983
991	C	0.763615	0.080636	0.674731
992	C	0.778255	0.078757	0.966748
993	H	0.823078	0.081633	0.743925
994	C	0.8091	0.078484	0.965937
995	H	0.769138	0.082326	0.936817
996	H	0.821303	0.082097	0.935615
997	C	0.765613	0.082407	0.760498
998	H	0.779331	0.079563	0.788906
999	H	0.738974	0.062651	0.763473
1000	H	0.76746	0.107219	0.763494
1001	C	0.932961	0.249579	0.673377
1002	C	0.93419	0.234637	0.71469
1003	C	0.933444	0.203062	0.716159
1004	C	0.932122	0.186238	0.674927
1005	C	0.933838	0.202688	0.96692
1006	H	0.931227	0.244725	0.744148
1007	C	0.933943	0.233716	0.96617
1008	H	0.930109	0.189995	0.936969
1009	H	0.930299	0.242262	0.935824
1010	C	0.930468	0.186484	0.760647
1011	H	0.933283	0.203013	0.789071
1012	H	0.950282	0.179671	0.763571
1013	H	0.905677	0.163485	0.763646
1014	C	0.762988	0.186633	0.673147
1015	C	0.777941	0.202728	0.714538
1016	C	0.809539	0.233541	0.716054
1017	C	0.826332	0.24908	0.674826
1018	C	0.809915	0.234382	0.966805
1019	H	0.767873	0.189592	0.743942
1020	C	0.778793	0.20356	0.965975
1021	H	0.822559	0.24349	0.936848
1022	H	0.770222	0.191357	0.935652
1023	C	0.826115	0.247066	0.760569
1024	H	0.809567	0.23332	0.788966
1025	H	0.832945	0.273681	0.763571
1026	H	0.849115	0.245258	0.763538
1027	C	0.543522	0.523283	0.007013
1028	C	0.525219	0.540969	0.007045
1029	C	0.98923	0.523341	0.006994
1030	C	0.971538	0.987366	0.00703
1031	C	0.989179	0.969016	0.007001
1032	C	0.525173	0.987307	0.007065
1033	H	0.945485	0.974366	0.006399
1034	H	0.538184	0.974269	0.006423
1035	H	0.538261	0.567009	0.006426
1036	C	0.743177	0.596359	0.006847
1037	C	0.760453	0.632215	0.006183
1038	C	0.742893	0.650531	0.006011
1039	C	0.706941	0.632217	0.006163
1040	C	0.688811	0.596138	0.006514
1041	C	0.707222	0.578459	0.006931
1042	H	0.693955	0.645268	0.006068
1043	H	0.694448	0.552439	0.007411
1044	H	0.786578	0.645359	0.006345
1045	C	0.916366	0.650089	0.006831
1046	C	0.880491	0.631523	0.006183
1047	C	0.862158	0.59566	0.00597
1048	C	0.880466	0.578022	0.006092
1049	C	0.91656	0.595952	0.00647
1050	C	0.934256	0.632026	0.006936
1051	H	0.8674	0.551994	0.005977
1052	H	0.960291	0.64526	0.007471
1053	H	0.867347	0.6445	0.006413
1054	C	0.862507	0.769469	0.006794
1055	C	0.881078	0.752169	0.006203
1056	C	0.916961	0.76969	0.006004
1057	C	0.934607	0.805625	0.006146
1058	C	0.916671	0.823781	0.006436
1059	C	0.880578	0.805409	0.006847
1060	H	0.960646	0.818584	0.006102
1061	H	0.867338	0.818203	0.007326
1062	H	0.868093	0.72606	0.006473
1063	C	0.652585	0.5779	0.339544
1064	C	0.634384	0.568895	0.298394
1065	C	0.598277	0.550777	0.29729
1066	C	0.579833	0.541414	0.338737
1067	C	0.598148	0.550464	0.04653
1068	H	0.647762	0.575701	0.268714
1069	C	0.633976	0.568417	0.046954
1070	H	0.585471	0.544034	0.076742
1071	H	0.646412	0.574578	0.077327
1072	C	0.58039	0.541907	0.252988
1073	H	0.597925	0.550746	0.224394
1074	H	0.564366	0.553435	0.250304
1075	H	0.564435	0.51437	0.250123
1076	C	0.934774	0.577943	0.339507
1077	C	0.94379	0.568755	0.298361
1078	C	0.961839	0.550701	0.297263
1079	C	0.971106	0.541528	0.338713
1080	C	0.962042	0.550782	0.046504
1081	H	0.937041	0.575381	0.268679
1082	C	0.944159	0.568722	0.046922
1083	H	0.968413	0.544479	0.076718
1084	H	0.937977	0.57498	0.077293
1085	C	0.970729	0.541704	0.252964
1086	H	0.961946	0.550449	0.224367
1087	H	0.959151	0.514159	0.250235
1088	H	0.99828	0.553237	0.250148
1089	C	0.934677	0.859995	0.339483
1090	C	0.943864	0.8782	0.298342
1091	C	0.961878	0.91429	0.297255
1092	C	0.971005	0.932721	0.33871
1093	C	0.96175	0.914399	0.046493
1094	H	0.937264	0.864834	0.268657
1095	C	0.943852	0.878589	0.0469
1096	H	0.968022	0.927063	0.07671
1097	H	0.937588	0.866151	0.077269
1098	C	0.970884	0.932179	0.252961
1099	H	0.96217	0.914661	0.224359
1100	H	0.998438	0.948173	0.250259
1101	H	0.95931	0.948155	0.250128
1102	C	0.826044	0.579653	0.006446
1103	C	0.809935	0.578487	0.047833
1104	C	0.779152	0.579361	0.049316
1105	C	0.763615	0.580637	0.008064
1106	C	0.778253	0.578756	0.300079
1107	H	0.823077	0.581633	0.077257
1108	C	0.809099	0.578484	0.299269
1109	H	0.76914	0.582327	0.27015
1110	H	0.821303	0.582098	0.268947
1111	C	0.765613	0.582406	0.093832
1112	H	0.779332	0.579562	0.122237
1113	H	0.738973	0.562651	0.096807
1114	H	0.767462	0.607219	0.096828
1115	C	0.93296	0.749579	0.006709
1116	C	0.934189	0.734638	0.048023
1117	C	0.933445	0.703062	0.04949
1118	C	0.932121	0.686237	0.008261
1119	C	0.93384	0.702688	0.300252
1120	H	0.931228	0.744725	0.07748
1121	C	0.933945	0.733718	0.299502
1122	H	0.930109	0.689996	0.270301
1123	H	0.930298	0.742262	0.269158
1124	C	0.930467	0.686484	0.093979
1125	H	0.933284	0.703014	0.122403
1126	H	0.950282	0.679672	0.096905
1127	H	0.905678	0.663485	0.096979
1128	C	0.762988	0.686633	0.00648
1129	C	0.77794	0.702729	0.04787
1130	C	0.809538	0.733542	0.049386
1131	C	0.826331	0.749081	0.008157
1132	C	0.809915	0.734383	0.300139
1133	H	0.767874	0.689592	0.077276
1134	C	0.778792	0.70356	0.299308
1135	H	0.82256	0.74349	0.27018
1136	H	0.770222	0.691358	0.268985
1137	C	0.826114	0.747066	0.0939
1138	H	0.809566	0.733321	0.122299
1139	H	0.832944	0.77368	0.096903
1140	H	0.849116	0.745259	0.096871
1141	C	0.543522	0.523283	0.340348
1142	C	0.525219	0.540969	0.340378
1143	C	0.98923	0.523341	0.340328
1144	C	0.971538	0.987366	0.340365
1145	C	0.989179	0.969016	0.340334
1146	C	0.525173	0.987307	0.340399
1147	H	0.945485	0.974366	0.339733
1148	H	0.538184	0.974269	0.339757
1149	H	0.538261	0.567009	0.33976
1150	C	0.743177	0.596359	0.340179
1151	C	0.760453	0.632215	0.339514
1152	C	0.742893	0.650531	0.339341
1153	C	0.706941	0.632217	0.339493
1154	C	0.688811	0.596138	0.339848
1155	C	0.707222	0.578459	0.340263
1156	H	0.693955	0.645268	0.339402
1157	H	0.694448	0.552439	0.340743
1158	H	0.786578	0.645359	0.339676
1159	C	0.916366	0.650089	0.340166
1160	C	0.880491	0.631523	0.339514
1161	C	0.862158	0.59566	0.339304
1162	C	0.880466	0.578022	0.339426
1163	C	0.91656	0.595952	0.339804
1164	C	0.934256	0.632026	0.34027
1165	H	0.8674	0.551994	0.339311
1166	H	0.960291	0.64526	0.340804
1167	H	0.867347	0.6445	0.339743
1168	C	0.862507	0.769469	0.340128
1169	C	0.881078	0.752169	0.339537
1170	C	0.916961	0.76969	0.339338
1171	C	0.934607	0.805625	0.339477
1172	C	0.916671	0.823781	0.33977
1173	C	0.880578	0.805409	0.340182
1174	H	0.960646	0.818584	0.339433
1175	H	0.867338	0.818203	0.340659
1176	H	0.868093	0.72606	0.339808
1177	C	0.652585	0.5779	0.672877
1178	C	0.634384	0.568895	0.631726
1179	C	0.598277	0.550777	0.630622
1180	C	0.579833	0.541414	0.67207
1181	C	0.598148	0.550464	0.379864
1182	H	0.647762	0.575701	0.602049
1183	C	0.633976	0.568417	0.380286
1184	H	0.585471	0.544034	0.410075
1185	H	0.646412	0.574578	0.410659
1186	C	0.58039	0.541907	0.586323
1187	H	0.597925	0.550746	0.557727
1188	H	0.564366	0.553435	0.583638
1189	H	0.564435	0.51437	0.583456
1190	C	0.934774	0.577943	0.67284
1191	C	0.94379	0.568755	0.631696
1192	C	0.961839	0.550701	0.630598
1193	C	0.971106	0.541528	0.672046
1194	C	0.962042	0.550782	0.379837
1195	H	0.937041	0.575381	0.602012
1196	C	0.944159	0.568722	0.380256
1197	H	0.968413	0.544479	0.410052
1198	H	0.937977	0.57498	0.410626
1199	C	0.970729	0.541704	0.586296
1200	H	0.961946	0.550449	0.5577
1201	H	0.959151	0.514159	0.583567
1202	H	0.99828	0.553237	0.583483
1203	C	0.934677	0.859995	0.672816
1204	C	0.943864	0.8782	0.631676
1205	C	0.961878	0.91429	0.630588
1206	C	0.971005	0.932721	0.672043
1207	C	0.96175	0.914399	0.379827
1208	H	0.937264	0.864834	0.601991
1209	C	0.943852	0.878589	0.380235
1210	H	0.968022	0.927063	0.410045
1211	H	0.937588	0.866151	0.410602
1212	C	0.970884	0.932179	0.586296
1213	H	0.96217	0.914661	0.557693
1214	H	0.998438	0.948173	0.583591
1215	H	0.95931	0.948155	0.583463
1216	C	0.826044	0.579653	0.339781
1217	C	0.809935	0.578487	0.381168
1218	C	0.779152	0.579361	0.38265
1219	C	0.763615	0.580637	0.341398
1220	C	0.778253	0.578756	0.633412
1221	H	0.823077	0.581633	0.410592
1222	C	0.809099	0.578484	0.632604
1223	H	0.76914	0.582327	0.603484
1224	H	0.821303	0.582098	0.602282
1225	C	0.765613	0.582406	0.427165
1226	H	0.779332	0.579562	0.455569
1227	H	0.738973	0.562651	0.430141
1228	H	0.767462	0.607219	0.430161
1229	C	0.93296	0.749579	0.340044
1230	C	0.934189	0.734638	0.381357
1231	C	0.933445	0.703062	0.382823
1232	C	0.932121	0.686237	0.341594
1233	C	0.93384	0.702688	0.633584
1234	H	0.931228	0.744725	0.410815
1235	C	0.933945	0.733718	0.632834
1236	H	0.930109	0.689996	0.603636
1237	H	0.930298	0.742262	0.602491
1238	C	0.930467	0.686484	0.427314
1239	H	0.933284	0.703014	0.455738
1240	H	0.950282	0.679672	0.430238
1241	H	0.905678	0.663485	0.430313
1242	C	0.762988	0.686633	0.339814
1243	C	0.77794	0.702729	0.381205
1244	C	0.809538	0.733542	0.382718
1245	C	0.826331	0.749081	0.341489
1246	C	0.809915	0.734383	0.633472
1247	H	0.767874	0.689592	0.410609
1248	C	0.778792	0.70356	0.632642
1249	H	0.82256	0.74349	0.603515
1250	H	0.770222	0.691358	0.602319
1251	C	0.826114	0.747066	0.427233
1252	H	0.809566	0.733321	0.455633
1253	H	0.832944	0.77368	0.430235
1254	H	0.849116	0.745259	0.430205
1255	C	0.543522	0.523283	0.673681
1256	C	0.525219	0.540969	0.673711
1257	C	0.98923	0.523341	0.673661
1258	C	0.971538	0.987366	0.673698
1259	C	0.989179	0.969016	0.673667
1260	C	0.525173	0.987307	0.673732
1261	H	0.945485	0.974366	0.673066
1262	H	0.538184	0.974269	0.67309
1263	H	0.538261	0.567009	0.673093
1264	C	0.743177	0.596359	0.673515
1265	C	0.760453	0.632215	0.672847
1266	C	0.742893	0.650531	0.672674
1267	C	0.706941	0.632217	0.67283
1268	C	0.688811	0.596138	0.673181
1269	C	0.707222	0.578459	0.6736
1270	H	0.693955	0.645268	0.672735
1271	H	0.694448	0.552439	0.674079
1272	H	0.786578	0.645359	0.673012
1273	C	0.916366	0.650089	0.673499
1274	C	0.880491	0.631523	0.67285
1275	C	0.862158	0.59566	0.672637
1276	C	0.880466	0.578022	0.672759
1277	C	0.91656	0.595952	0.673137
1278	C	0.934256	0.632026	0.673603
1279	H	0.8674	0.551994	0.672644
1280	H	0.960291	0.64526	0.674137
1281	H	0.867347	0.6445	0.67308
1282	C	0.862507	0.769469	0.673461
1283	C	0.881078	0.752169	0.67287
1284	C	0.916961	0.76969	0.672671
1285	C	0.934607	0.805625	0.67281
1286	C	0.916671	0.823781	0.673103
1287	C	0.880578	0.805409	0.673515
1288	H	0.960646	0.818584	0.672769
1289	H	0.867338	0.818203	0.673992
1290	H	0.868093	0.72606	0.67314
1291	C	0.652585	0.5779	0.00621
1292	C	0.634384	0.568895	0.965063
1293	C	0.598277	0.550777	0.963958
1294	C	0.579833	0.541414	0.005406
1295	C	0.598148	0.550464	0.713197
1296	H	0.647762	0.575701	0.935382
1297	C	0.633976	0.568417	0.713622
1298	H	0.585471	0.544034	0.743408
1299	H	0.646412	0.574578	0.743996
1300	C	0.58039	0.541907	0.919656
1301	H	0.597925	0.550746	0.89106
1302	H	0.564366	0.553435	0.916971
1303	H	0.564435	0.51437	0.916789
1304	C	0.934774	0.577943	0.006173
1305	C	0.94379	0.568755	0.965029
1306	C	0.961839	0.550701	0.963931
1307	C	0.971106	0.541528	0.005383
1308	C	0.962042	0.550782	0.71317
1309	H	0.937041	0.575381	0.935348
1310	C	0.944159	0.568722	0.713589
1311	H	0.968413	0.544479	0.743384
1312	H	0.937977	0.57498	0.743962
1313	C	0.970729	0.541704	0.919633
1314	H	0.961946	0.550449	0.891033
1315	H	0.959151	0.514159	0.916904
1316	H	0.99828	0.553237	0.916816
1317	C	0.934677	0.859995	0.006149
1318	C	0.943864	0.8782	0.965009
1319	C	0.961878	0.91429	0.963921
1320	C	0.971005	0.932721	0.005376
1321	C	0.96175	0.914399	0.71316
1322	H	0.937264	0.864834	0.935324
1323	C	0.943852	0.878589	0.713568
1324	H	0.968022	0.927063	0.743378
1325	H	0.937588	0.866151	0.743935
1326	C	0.970884	0.932179	0.919629
1327	H	0.96217	0.914661	0.891026
1328	H	0.998438	0.948173	0.916927
1329	H	0.95931	0.948155	0.916796
1330	C	0.826044	0.579653	0.673113
1331	C	0.809935	0.578487	0.714501
1332	C	0.779152	0.579361	0.715983
1333	C	0.763615	0.580637	0.674731
1334	C	0.778253	0.578756	0.966748
1335	H	0.823077	0.581633	0.743925
1336	C	0.809099	0.578484	0.965937
1337	H	0.76914	0.582327	0.936817
1338	H	0.821303	0.582098	0.935615
1339	C	0.765613	0.582406	0.760498
1340	H	0.779332	0.579562	0.788906
1341	H	0.738973	0.562651	0.763473
1342	H	0.767462	0.607219	0.763494
1343	C	0.93296	0.749579	0.673377
1344	C	0.934189	0.734638	0.71469
1345	C	0.933445	0.703062	0.716159
1346	C	0.932121	0.686237	0.674927
1347	C	0.93384	0.702688	0.96692
1348	H	0.931228	0.744725	0.744148
1349	C	0.933945	0.733718	0.96617
1350	H	0.930109	0.689996	0.936969
1351	H	0.930298	0.742262	0.935824
1352	C	0.930467	0.686484	0.760647
1353	H	0.933284	0.703014	0.789071
1354	H	0.950282	0.679672	0.763571
1355	H	0.905678	0.663485	0.763646
1356	C	0.762988	0.686633	0.673147
1357	C	0.77794	0.702729	0.714538
1358	C	0.809538	0.733542	0.716054
1359	C	0.826331	0.749081	0.674826
1360	C	0.809915	0.734383	0.966805
1361	H	0.767874	0.689592	0.743942
1362	C	0.778792	0.70356	0.965975
1363	H	0.82256	0.74349	0.936848
1364	H	0.770222	0.691358	0.935652
1365	C	0.826114	0.747066	0.760569
1366	H	0.809566	0.733321	0.788966
1367	H	0.832944	0.77368	0.763571
1368	H	0.849116	0.745259	0.763538
