data_C360H216N288_2018-02-15_10:33:53
#******************************************
#
# CIF file created by Zeo++
# Zeo++ is an open source package to
# analyze microporous materials
#
#*******************************************

_cell_length_a		42.4526   
_cell_length_b		42.4526   
_cell_length_c		30.0268   
_cell_angle_alpha		90   
_cell_angle_beta		90   
_cell_angle_gamma		120   

_symmetry_space_group_name_H-M		'P1'
_symmetry_Int_Tables_number		1
_symmetry_cell_setting		Monoclinic

loop_
_symmetry_equiv_pos_as_xyz
'+x,+y,+z'

loop_
_atom_site_label
_atom_site_type_symbol
_atom_site_fract_x
_atom_site_fract_y
_atom_site_fract_z
1	C	0.184883	0.314742	0.057347
2	N	0.14791	0.296056	0.05706
3	C	0.128951	0.313972	0.057348
4	N	0.147236	0.350945	0.057061
5	C	0.184114	0.369908	0.057341
6	N	0.202799	0.351619	0.057043
7	N	0.090815	0.293665	0.054287
8	H	0.080121	0.303144	0.077933
9	N	0.201943	0.408045	0.05429
10	H	0.222192	0.418732	0.077841
11	N	0.205203	0.296926	0.05429
12	H	0.195776	0.276804	0.077998
13	C	0.31431	0.184898	0.943313
14	N	0.351281	0.203044	0.943546
15	C	0.369701	0.184581	0.943223
16	N	0.350874	0.14761	0.943519
17	C	0.313992	0.129192	0.943279
18	N	0.295845	0.148016	0.943599
19	N	0.407854	0.204358	0.946207
20	H	0.418255	0.194646	0.922471
21	N	0.295607	0.091037	0.946263
22	H	0.275412	0.080642	0.922635
23	N	0.294539	0.203281	0.946297
24	H	0.3042	0.223343	0.922498
25	C	0.272776	0.235202	0.996755
26	N	0.253947	0.237197	0.294569
27	C	0.23166	0.251482	0.296016
28	C	0.227436	0.265446	0.337058
29	N	0.24628	0.263469	0.03924
30	C	0.268598	0.249217	0.03778
31	C	0.284349	0.248735	0.074715
32	C	0.215907	0.251958	0.259078
33	N	0.20219	0.25259	0.226392
34	N	0.29807	0.248103	0.107398
35	C	0.203553	0.281471	0.342643
36	H	0.212052	0.303272	0.318054
37	H	0.175579	0.260421	0.335084
38	C	0.296481	0.21897	0.991203
39	H	0.287954	0.197261	0.015926
40	H	0.324531	0.239929	0.998567
41	C	0.263829	0.037369	0.996792
42	N	0.261415	0.016487	0.294475
43	C	0.246976	0.479893	0.295871
44	C	0.233293	0.461743	0.336999
45	N	0.235687	0.482621	0.03931
46	C	0.250093	0.019212	0.037902
47	C	0.25099	0.035498	0.074959
48	C	0.246083	0.463611	0.25881
49	N	0.245077	0.449217	0.226018
50	N	0.251994	0.049895	0.107749
51	C	0.217153	0.421816	0.34254
52	H	0.195188	0.408581	0.318149
53	H	0.238077	0.414782	0.334674
54	C	0.280173	0.077323	0.991277
55	H	0.302055	0.09044	0.0158
56	H	0.25934	0.08452	0.99896
57	C	0.461523	0.22616	0.996708
58	N	0.482381	0.244863	0.294482
59	C	0.01896	0.267098	0.295926
60	C	0.037122	0.271402	0.337009
61	N	0.01627	0.252684	0.039229
62	C	0.479694	0.230419	0.037772
63	C	0.463429	0.214793	0.074745
64	C	0.035219	0.282722	0.25895
65	N	0.049595	0.296325	0.226231
66	N	0.449052	0.201186	0.107461
67	C	0.077036	0.295245	0.342594
68	H	0.090316	0.286661	0.318084
69	H	0.084006	0.323215	0.334927
70	C	0.421583	0.202494	0.991157
71	H	0.40842	0.211106	0.015803
72	H	0.414451	0.17445	0.998633
73	C	0.184883	0.314742	0.39068
74	N	0.14791	0.296056	0.390394
75	C	0.128951	0.313972	0.390684
76	N	0.147236	0.350945	0.390394
77	C	0.184114	0.369908	0.390674
78	N	0.202799	0.351619	0.390377
79	N	0.090815	0.293665	0.38762
80	H	0.080121	0.303144	0.411265
81	N	0.201943	0.408045	0.387623
82	H	0.222192	0.418732	0.411175
83	N	0.205203	0.296926	0.387623
84	H	0.195776	0.276804	0.411332
85	C	0.31431	0.184898	0.276645
86	N	0.351281	0.203044	0.27688
87	C	0.369701	0.184581	0.276555
88	N	0.350874	0.14761	0.276851
89	C	0.313992	0.129192	0.276611
90	N	0.295845	0.148016	0.276931
91	N	0.407854	0.204358	0.27954
92	H	0.418255	0.194646	0.255805
93	N	0.295607	0.091037	0.279597
94	H	0.275412	0.080642	0.255966
95	N	0.294539	0.203281	0.27963
96	H	0.3042	0.223343	0.255831
97	C	0.272776	0.235202	0.330087
98	N	0.253947	0.237197	0.627902
99	C	0.23166	0.251482	0.62935
100	C	0.227436	0.265446	0.670394
101	N	0.24628	0.263469	0.372573
102	C	0.268598	0.249217	0.371115
103	C	0.284349	0.248735	0.408048
104	C	0.215907	0.251958	0.592413
105	N	0.20219	0.25259	0.559726
106	N	0.29807	0.248103	0.440732
107	C	0.203553	0.281471	0.675975
108	H	0.212052	0.303272	0.651387
109	H	0.175579	0.260421	0.668419
110	C	0.296481	0.21897	0.324535
111	H	0.287954	0.197261	0.349261
112	H	0.324531	0.239929	0.331898
113	C	0.263829	0.037369	0.330122
114	N	0.261415	0.016487	0.627808
115	C	0.246976	0.479893	0.629204
116	C	0.233293	0.461743	0.670334
117	N	0.235687	0.482621	0.372643
118	C	0.250093	0.019212	0.371235
119	C	0.25099	0.035498	0.408295
120	C	0.246083	0.463611	0.592144
121	N	0.245077	0.449217	0.559353
122	N	0.251994	0.049895	0.441082
123	C	0.217153	0.421816	0.675875
124	H	0.195188	0.408581	0.651484
125	H	0.238077	0.414782	0.668009
126	C	0.280173	0.077323	0.32461
127	H	0.302055	0.09044	0.349134
128	H	0.25934	0.08452	0.332294
129	C	0.461523	0.22616	0.330039
130	N	0.482381	0.244863	0.627815
131	C	0.01896	0.267098	0.62926
132	C	0.037122	0.271402	0.670344
133	N	0.01627	0.252684	0.372563
134	C	0.479694	0.230419	0.371105
135	C	0.463429	0.214793	0.408078
136	C	0.035219	0.282722	0.592283
137	N	0.049595	0.296325	0.559566
138	N	0.449052	0.201186	0.440796
139	C	0.077036	0.295245	0.675929
140	H	0.090316	0.286661	0.651417
141	H	0.084006	0.323215	0.668259
142	C	0.421583	0.202494	0.324488
143	H	0.40842	0.211106	0.349138
144	H	0.414451	0.17445	0.331967
145	C	0.184883	0.314742	0.724016
146	N	0.14791	0.296056	0.723726
147	C	0.128951	0.313972	0.724016
148	N	0.147236	0.350945	0.723729
149	C	0.184114	0.369908	0.724009
150	N	0.202799	0.351619	0.723709
151	N	0.090815	0.293665	0.720955
152	H	0.080121	0.303144	0.744601
153	N	0.201943	0.408045	0.720958
154	H	0.222192	0.418732	0.744507
155	N	0.205203	0.296926	0.720958
156	H	0.195776	0.276804	0.744667
157	C	0.31431	0.184898	0.609978
158	N	0.351281	0.203044	0.610214
159	C	0.369701	0.184581	0.609888
160	N	0.350874	0.14761	0.610184
161	C	0.313992	0.129192	0.609944
162	N	0.295845	0.148016	0.610264
163	N	0.407854	0.204358	0.612875
164	H	0.418255	0.194646	0.58914
165	N	0.295607	0.091037	0.612932
166	H	0.275412	0.080642	0.589299
167	N	0.294539	0.203281	0.612965
168	H	0.3042	0.223343	0.589166
169	C	0.272776	0.235202	0.66342
170	N	0.253947	0.237197	0.961237
171	C	0.23166	0.251482	0.962682
172	C	0.227436	0.265446	0.003725
173	N	0.24628	0.263469	0.705908
174	C	0.268598	0.249217	0.704446
175	C	0.284349	0.248735	0.741383
176	C	0.215907	0.251958	0.925745
177	N	0.20219	0.25259	0.893061
178	N	0.29807	0.248103	0.774064
179	C	0.203553	0.281471	0.009308
180	H	0.212052	0.303272	0.984722
181	H	0.175579	0.260421	0.001751
182	C	0.296481	0.21897	0.657868
183	H	0.287954	0.197261	0.682593
184	H	0.324531	0.239929	0.665232
185	C	0.263829	0.037369	0.663456
186	N	0.261415	0.016487	0.961143
187	C	0.246976	0.479893	0.962539
188	C	0.233293	0.461743	0.003665
189	N	0.235687	0.482621	0.705978
190	C	0.250093	0.019212	0.70457
191	C	0.25099	0.035498	0.741627
192	C	0.246083	0.463611	0.925479
193	N	0.245077	0.449217	0.892685
194	N	0.251994	0.049895	0.774417
195	C	0.217153	0.421816	0.009208
196	H	0.195188	0.408581	0.984816
197	H	0.238077	0.414782	0.001341
198	C	0.280173	0.077323	0.657945
199	H	0.302055	0.09044	0.682466
200	H	0.25934	0.08452	0.665628
201	C	0.461523	0.22616	0.663373
202	N	0.482381	0.244863	0.96115
203	C	0.01896	0.267098	0.962592
204	C	0.037122	0.271402	0.003675
205	N	0.01627	0.252684	0.705895
206	C	0.479694	0.230419	0.70444
207	C	0.463429	0.214793	0.741413
208	C	0.035219	0.282722	0.925619
209	N	0.049595	0.296325	0.892898
210	N	0.449052	0.201186	0.774127
211	C	0.077036	0.295245	0.009261
212	H	0.090316	0.286661	0.984752
213	H	0.084006	0.323215	0.001592
214	C	0.421583	0.202494	0.657821
215	H	0.40842	0.211106	0.682469
216	H	0.414451	0.17445	0.665301
217	C	0.184883	0.814741	0.057347
218	N	0.147908	0.796055	0.05706
219	C	0.128951	0.813971	0.057348
220	N	0.147238	0.850947	0.057061
221	C	0.184114	0.869908	0.057341
222	N	0.202798	0.851618	0.057043
223	N	0.090815	0.793664	0.054287
224	H	0.080121	0.803143	0.077933
225	N	0.201943	0.908044	0.05429
226	H	0.22219	0.918731	0.077841
227	N	0.205203	0.796925	0.05429
228	H	0.195776	0.776803	0.077998
229	C	0.31431	0.684898	0.943313
230	N	0.351282	0.703045	0.943546
231	C	0.369699	0.684579	0.943223
232	N	0.350874	0.64761	0.943519
233	C	0.313992	0.629193	0.943279
234	N	0.295845	0.648015	0.943599
235	N	0.407855	0.704359	0.946207
236	H	0.418255	0.694646	0.922471
237	N	0.295606	0.591037	0.946263
238	H	0.275411	0.580641	0.922635
239	N	0.294539	0.703282	0.946297
240	H	0.3042	0.723342	0.922498
241	C	0.272776	0.735201	0.996755
242	N	0.253947	0.737197	0.294569
243	C	0.23166	0.751483	0.296016
244	C	0.227436	0.765444	0.337058
245	N	0.24628	0.76347	0.03924
246	C	0.268597	0.749217	0.03778
247	C	0.284349	0.748735	0.074715
248	C	0.215908	0.751959	0.259078
249	N	0.20219	0.75259	0.226392
250	N	0.298069	0.748102	0.107398
251	C	0.203553	0.78147	0.342643
252	H	0.212052	0.803271	0.318054
253	H	0.175578	0.76042	0.335084
254	C	0.29648	0.718968	0.991203
255	H	0.287953	0.69726	0.015926
256	H	0.324531	0.739928	0.998567
257	C	0.263829	0.537369	0.996792
258	N	0.261416	0.516488	0.294475
259	C	0.246976	0.979892	0.295871
260	C	0.233291	0.961742	0.336999
261	N	0.235686	0.982621	0.03931
262	C	0.250093	0.51921	0.037902
263	C	0.25099	0.535498	0.074959
264	C	0.246084	0.963611	0.25881
265	N	0.245078	0.949219	0.226018
266	N	0.251994	0.549894	0.107749
267	C	0.217154	0.921816	0.34254
268	H	0.195187	0.90858	0.318149
269	H	0.238077	0.914782	0.334674
270	C	0.280173	0.577323	0.991277
271	H	0.302053	0.590438	0.0158
272	H	0.25934	0.58452	0.99896
273	C	0.461524	0.72616	0.996708
274	N	0.48238	0.744862	0.294482
275	C	0.018961	0.767098	0.295926
276	C	0.037121	0.771401	0.337009
277	N	0.01627	0.752685	0.039229
278	C	0.479693	0.730419	0.037772
279	C	0.46343	0.714793	0.074745
280	C	0.035219	0.782724	0.25895
281	N	0.049594	0.796324	0.226231
282	N	0.449051	0.701185	0.107461
283	C	0.077036	0.795244	0.342594
284	H	0.090317	0.78666	0.318084
285	H	0.084006	0.823214	0.334927
286	C	0.421582	0.702493	0.991157
287	H	0.408422	0.711107	0.015803
288	H	0.414451	0.67445	0.998633
289	C	0.184883	0.814741	0.39068
290	N	0.147908	0.796055	0.390394
291	C	0.128951	0.813971	0.390684
292	N	0.147238	0.850947	0.390394
293	C	0.184114	0.869908	0.390674
294	N	0.202798	0.851618	0.390377
295	N	0.090815	0.793664	0.38762
296	H	0.080121	0.803143	0.411265
297	N	0.201943	0.908044	0.387623
298	H	0.22219	0.918731	0.411175
299	N	0.205203	0.796925	0.387623
300	H	0.195776	0.776803	0.411332
301	C	0.31431	0.684898	0.276645
302	N	0.351282	0.703045	0.27688
303	C	0.369699	0.684579	0.276555
304	N	0.350874	0.64761	0.276851
305	C	0.313992	0.629193	0.276611
306	N	0.295845	0.648015	0.276931
307	N	0.407855	0.704359	0.27954
308	H	0.418255	0.694646	0.255805
309	N	0.295606	0.591037	0.279597
310	H	0.275411	0.580641	0.255966
311	N	0.294539	0.703282	0.27963
312	H	0.3042	0.723342	0.255831
313	C	0.272776	0.735201	0.330087
314	N	0.253947	0.737197	0.627902
315	C	0.23166	0.751483	0.62935
316	C	0.227436	0.765444	0.670394
317	N	0.24628	0.76347	0.372573
318	C	0.268597	0.749217	0.371115
319	C	0.284349	0.748735	0.408048
320	C	0.215908	0.751959	0.592413
321	N	0.20219	0.75259	0.559726
322	N	0.298069	0.748102	0.440732
323	C	0.203553	0.78147	0.675975
324	H	0.212052	0.803271	0.651387
325	H	0.175578	0.76042	0.668419
326	C	0.29648	0.718968	0.324535
327	H	0.287953	0.69726	0.349261
328	H	0.324531	0.739928	0.331898
329	C	0.263829	0.537369	0.330122
330	N	0.261416	0.516488	0.627808
331	C	0.246976	0.979892	0.629204
332	C	0.233291	0.961742	0.670334
333	N	0.235686	0.982621	0.372643
334	C	0.250093	0.51921	0.371235
335	C	0.25099	0.535498	0.408295
336	C	0.246084	0.963611	0.592144
337	N	0.245078	0.949219	0.559353
338	N	0.251994	0.549894	0.441082
339	C	0.217154	0.921816	0.675875
340	H	0.195187	0.90858	0.651484
341	H	0.238077	0.914782	0.668009
342	C	0.280173	0.577323	0.32461
343	H	0.302053	0.590438	0.349134
344	H	0.25934	0.58452	0.332294
345	C	0.461524	0.72616	0.330039
346	N	0.48238	0.744862	0.627815
347	C	0.018961	0.767098	0.62926
348	C	0.037121	0.771401	0.670344
349	N	0.01627	0.752685	0.372563
350	C	0.479693	0.730419	0.371105
351	C	0.46343	0.714793	0.408078
352	C	0.035219	0.782724	0.592283
353	N	0.049594	0.796324	0.559566
354	N	0.449051	0.701185	0.440796
355	C	0.077036	0.795244	0.675929
356	H	0.090317	0.78666	0.651417
357	H	0.084006	0.823214	0.668259
358	C	0.421582	0.702493	0.324488
359	H	0.408422	0.711107	0.349138
360	H	0.414451	0.67445	0.331967
361	C	0.184883	0.814741	0.724016
362	N	0.147908	0.796055	0.723726
363	C	0.128951	0.813971	0.724016
364	N	0.147238	0.850947	0.723729
365	C	0.184114	0.869908	0.724009
366	N	0.202798	0.851618	0.723709
367	N	0.090815	0.793664	0.720955
368	H	0.080121	0.803143	0.744601
369	N	0.201943	0.908044	0.720958
370	H	0.22219	0.918731	0.744507
371	N	0.205203	0.796925	0.720958
372	H	0.195776	0.776803	0.744667
373	C	0.31431	0.684898	0.609978
374	N	0.351282	0.703045	0.610214
375	C	0.369699	0.684579	0.609888
376	N	0.350874	0.64761	0.610184
377	C	0.313992	0.629193	0.609944
378	N	0.295845	0.648015	0.610264
379	N	0.407855	0.704359	0.612875
380	H	0.418255	0.694646	0.58914
381	N	0.295606	0.591037	0.612932
382	H	0.275411	0.580641	0.589299
383	N	0.294539	0.703282	0.612965
384	H	0.3042	0.723342	0.589166
385	C	0.272776	0.735201	0.66342
386	N	0.253947	0.737197	0.961237
387	C	0.23166	0.751483	0.962682
388	C	0.227436	0.765444	0.003725
389	N	0.24628	0.76347	0.705908
390	C	0.268597	0.749217	0.704446
391	C	0.284349	0.748735	0.741383
392	C	0.215908	0.751959	0.925745
393	N	0.20219	0.75259	0.893061
394	N	0.298069	0.748102	0.774064
395	C	0.203553	0.78147	0.009308
396	H	0.212052	0.803271	0.984722
397	H	0.175578	0.76042	0.001751
398	C	0.29648	0.718968	0.657868
399	H	0.287953	0.69726	0.682593
400	H	0.324531	0.739928	0.665232
401	C	0.263829	0.537369	0.663456
402	N	0.261416	0.516488	0.961143
403	C	0.246976	0.979892	0.962539
404	C	0.233291	0.961742	0.003665
405	N	0.235686	0.982621	0.705978
406	C	0.250093	0.51921	0.70457
407	C	0.25099	0.535498	0.741627
408	C	0.246084	0.963611	0.925479
409	N	0.245078	0.949219	0.892685
410	N	0.251994	0.549894	0.774417
411	C	0.217154	0.921816	0.009208
412	H	0.195187	0.90858	0.984816
413	H	0.238077	0.914782	0.001341
414	C	0.280173	0.577323	0.657945
415	H	0.302053	0.590438	0.682466
416	H	0.25934	0.58452	0.665628
417	C	0.461524	0.72616	0.663373
418	N	0.48238	0.744862	0.96115
419	C	0.018961	0.767098	0.962592
420	C	0.037121	0.771401	0.003675
421	N	0.01627	0.752685	0.705895
422	C	0.479693	0.730419	0.70444
423	C	0.46343	0.714793	0.741413
424	C	0.035219	0.782724	0.925619
425	N	0.049594	0.796324	0.892898
426	N	0.449051	0.701185	0.774127
427	C	0.077036	0.795244	0.009261
428	H	0.090317	0.78666	0.984752
429	H	0.084006	0.823214	0.001592
430	C	0.421582	0.702493	0.657821
431	H	0.408422	0.711107	0.682469
432	H	0.414451	0.67445	0.665301
433	C	0.684884	0.314742	0.057347
434	N	0.64791	0.296056	0.05706
435	C	0.62895	0.313972	0.057348
436	N	0.647236	0.350945	0.057061
437	C	0.684113	0.369908	0.057341
438	N	0.7028	0.351619	0.057043
439	N	0.590815	0.293665	0.054287
440	H	0.58012	0.303144	0.077933
441	N	0.701943	0.408045	0.05429
442	H	0.722192	0.418732	0.077841
443	N	0.705204	0.296926	0.05429
444	H	0.695776	0.276804	0.077998
445	C	0.81431	0.184898	0.943313
446	N	0.851281	0.203044	0.943546
447	C	0.869701	0.184581	0.943223
448	N	0.850874	0.14761	0.943519
449	C	0.813992	0.129192	0.943279
450	N	0.795846	0.148016	0.943599
451	N	0.907854	0.204358	0.946207
452	H	0.918255	0.194646	0.922471
453	N	0.795607	0.091037	0.946263
454	H	0.775411	0.080642	0.922635
455	N	0.794538	0.203281	0.946297
456	H	0.804201	0.223343	0.922498
457	C	0.772776	0.235202	0.996755
458	N	0.753947	0.237197	0.294569
459	C	0.731659	0.251482	0.296016
460	C	0.727436	0.265446	0.337058
461	N	0.746281	0.263469	0.03924
462	C	0.768598	0.249217	0.03778
463	C	0.784348	0.248735	0.074715
464	C	0.715907	0.251958	0.259078
465	N	0.702191	0.25259	0.226392
466	N	0.798069	0.248103	0.107398
467	C	0.703554	0.281471	0.342643
468	H	0.712051	0.303272	0.318054
469	H	0.675579	0.260421	0.335084
470	C	0.796482	0.21897	0.991203
471	H	0.787954	0.197261	0.015926
472	H	0.824531	0.239929	0.998567
473	C	0.763829	0.037369	0.996792
474	N	0.761415	0.016487	0.294475
475	C	0.746976	0.479893	0.295871
476	C	0.733293	0.461743	0.336999
477	N	0.735688	0.482621	0.03931
478	C	0.750093	0.019212	0.037902
479	C	0.75099	0.035498	0.074959
480	C	0.746083	0.463611	0.25881
481	N	0.745076	0.449217	0.226018
482	N	0.751994	0.049895	0.107749
483	C	0.717153	0.421816	0.34254
484	H	0.695189	0.408581	0.318149
485	H	0.738077	0.414782	0.334674
486	C	0.780173	0.077323	0.991277
487	H	0.802055	0.09044	0.0158
488	H	0.75934	0.08452	0.99896
489	C	0.961523	0.22616	0.996708
490	N	0.982381	0.244863	0.294482
491	C	0.51896	0.267098	0.295926
492	C	0.537123	0.271402	0.337009
493	N	0.516271	0.252684	0.039229
494	C	0.979694	0.230419	0.037772
495	C	0.963429	0.214793	0.074745
496	C	0.535219	0.282722	0.25895
497	N	0.549596	0.296325	0.226231
498	N	0.949052	0.201186	0.107461
499	C	0.577036	0.295245	0.342594
500	H	0.590316	0.286661	0.318084
501	H	0.584005	0.323215	0.334927
502	C	0.921583	0.202494	0.991157
503	H	0.90842	0.211106	0.015803
504	H	0.914451	0.17445	0.998633
505	C	0.684884	0.314742	0.39068
506	N	0.64791	0.296056	0.390394
507	C	0.62895	0.313972	0.390684
508	N	0.647236	0.350945	0.390394
509	C	0.684113	0.369908	0.390674
510	N	0.7028	0.351619	0.390377
511	N	0.590815	0.293665	0.38762
512	H	0.58012	0.303144	0.411265
513	N	0.701943	0.408045	0.387623
514	H	0.722192	0.418732	0.411175
515	N	0.705204	0.296926	0.387623
516	H	0.695776	0.276804	0.411332
517	C	0.81431	0.184898	0.276645
518	N	0.851281	0.203044	0.27688
519	C	0.869701	0.184581	0.276555
520	N	0.850874	0.14761	0.276851
521	C	0.813992	0.129192	0.276611
522	N	0.795846	0.148016	0.276931
523	N	0.907854	0.204358	0.27954
524	H	0.918255	0.194646	0.255805
525	N	0.795607	0.091037	0.279597
526	H	0.775411	0.080642	0.255966
527	N	0.794538	0.203281	0.27963
528	H	0.804201	0.223343	0.255831
529	C	0.772776	0.235202	0.330087
530	N	0.753947	0.237197	0.627902
531	C	0.731659	0.251482	0.62935
532	C	0.727436	0.265446	0.670394
533	N	0.746281	0.263469	0.372573
534	C	0.768598	0.249217	0.371115
535	C	0.784348	0.248735	0.408048
536	C	0.715907	0.251958	0.592413
537	N	0.702191	0.25259	0.559726
538	N	0.798069	0.248103	0.440732
539	C	0.703554	0.281471	0.675975
540	H	0.712051	0.303272	0.651387
541	H	0.675579	0.260421	0.668419
542	C	0.796482	0.21897	0.324535
543	H	0.787954	0.197261	0.349261
544	H	0.824531	0.239929	0.331898
545	C	0.763829	0.037369	0.330122
546	N	0.761415	0.016487	0.627808
547	C	0.746976	0.479893	0.629204
548	C	0.733293	0.461743	0.670334
549	N	0.735688	0.482621	0.372643
550	C	0.750093	0.019212	0.371235
551	C	0.75099	0.035498	0.408295
552	C	0.746083	0.463611	0.592144
553	N	0.745076	0.449217	0.559353
554	N	0.751994	0.049895	0.441082
555	C	0.717153	0.421816	0.675875
556	H	0.695189	0.408581	0.651484
557	H	0.738077	0.414782	0.668009
558	C	0.780173	0.077323	0.32461
559	H	0.802055	0.09044	0.349134
560	H	0.75934	0.08452	0.332294
561	C	0.961523	0.22616	0.330039
562	N	0.982381	0.244863	0.627815
563	C	0.51896	0.267098	0.62926
564	C	0.537123	0.271402	0.670344
565	N	0.516271	0.252684	0.372563
566	C	0.979694	0.230419	0.371105
567	C	0.963429	0.214793	0.408078
568	C	0.535219	0.282722	0.592283
569	N	0.549596	0.296325	0.559566
570	N	0.949052	0.201186	0.440796
571	C	0.577036	0.295245	0.675929
572	H	0.590316	0.286661	0.651417
573	H	0.584005	0.323215	0.668259
574	C	0.921583	0.202494	0.324488
575	H	0.90842	0.211106	0.349138
576	H	0.914451	0.17445	0.331967
577	C	0.684884	0.314742	0.724016
578	N	0.64791	0.296056	0.723726
579	C	0.62895	0.313972	0.724016
580	N	0.647236	0.350945	0.723729
581	C	0.684113	0.369908	0.724009
582	N	0.7028	0.351619	0.723709
583	N	0.590815	0.293665	0.720955
584	H	0.58012	0.303144	0.744601
585	N	0.701943	0.408045	0.720958
586	H	0.722192	0.418732	0.744507
587	N	0.705204	0.296926	0.720958
588	H	0.695776	0.276804	0.744667
589	C	0.81431	0.184898	0.609978
590	N	0.851281	0.203044	0.610214
591	C	0.869701	0.184581	0.609888
592	N	0.850874	0.14761	0.610184
593	C	0.813992	0.129192	0.609944
594	N	0.795846	0.148016	0.610264
595	N	0.907854	0.204358	0.612875
596	H	0.918255	0.194646	0.58914
597	N	0.795607	0.091037	0.612932
598	H	0.775411	0.080642	0.589299
599	N	0.794538	0.203281	0.612965
600	H	0.804201	0.223343	0.589166
601	C	0.772776	0.235202	0.66342
602	N	0.753947	0.237197	0.961237
603	C	0.731659	0.251482	0.962682
604	C	0.727436	0.265446	0.003725
605	N	0.746281	0.263469	0.705908
606	C	0.768598	0.249217	0.704446
607	C	0.784348	0.248735	0.741383
608	C	0.715907	0.251958	0.925745
609	N	0.702191	0.25259	0.893061
610	N	0.798069	0.248103	0.774064
611	C	0.703554	0.281471	0.009308
612	H	0.712051	0.303272	0.984722
613	H	0.675579	0.260421	0.001751
614	C	0.796482	0.21897	0.657868
615	H	0.787954	0.197261	0.682593
616	H	0.824531	0.239929	0.665232
617	C	0.763829	0.037369	0.663456
618	N	0.761415	0.016487	0.961143
619	C	0.746976	0.479893	0.962539
620	C	0.733293	0.461743	0.003665
621	N	0.735688	0.482621	0.705978
622	C	0.750093	0.019212	0.70457
623	C	0.75099	0.035498	0.741627
624	C	0.746083	0.463611	0.925479
625	N	0.745076	0.449217	0.892685
626	N	0.751994	0.049895	0.774417
627	C	0.717153	0.421816	0.009208
628	H	0.695189	0.408581	0.984816
629	H	0.738077	0.414782	0.001341
630	C	0.780173	0.077323	0.657945
631	H	0.802055	0.09044	0.682466
632	H	0.75934	0.08452	0.665628
633	C	0.961523	0.22616	0.663373
634	N	0.982381	0.244863	0.96115
635	C	0.51896	0.267098	0.962592
636	C	0.537123	0.271402	0.003675
637	N	0.516271	0.252684	0.705895
638	C	0.979694	0.230419	0.70444
639	C	0.963429	0.214793	0.741413
640	C	0.535219	0.282722	0.925619
641	N	0.549596	0.296325	0.892898
642	N	0.949052	0.201186	0.774127
643	C	0.577036	0.295245	0.009261
644	H	0.590316	0.286661	0.984752
645	H	0.584005	0.323215	0.001592
646	C	0.921583	0.202494	0.657821
647	H	0.90842	0.211106	0.682469
648	H	0.914451	0.17445	0.665301
649	C	0.684882	0.814741	0.057347
650	N	0.647908	0.796055	0.05706
651	C	0.62895	0.813971	0.057348
652	N	0.647237	0.850947	0.057061
653	C	0.684114	0.869908	0.057341
654	N	0.702798	0.851618	0.057043
655	N	0.590815	0.793664	0.054287
656	H	0.580121	0.803143	0.077933
657	N	0.701943	0.908044	0.05429
658	H	0.72219	0.918731	0.077841
659	N	0.705202	0.796925	0.05429
660	H	0.695775	0.776803	0.077998
661	C	0.814309	0.684898	0.943313
662	N	0.851282	0.703045	0.943546
663	C	0.869699	0.684579	0.943223
664	N	0.850873	0.64761	0.943519
665	C	0.813991	0.629193	0.943279
666	N	0.795844	0.648015	0.943599
667	N	0.907856	0.704359	0.946207
668	H	0.918254	0.694646	0.922471
669	N	0.795606	0.591037	0.946263
670	H	0.775412	0.580641	0.922635
671	N	0.79454	0.703282	0.946297
672	H	0.8042	0.723342	0.922498
673	C	0.772777	0.735201	0.996755
674	N	0.753946	0.737197	0.294569
675	C	0.731661	0.751483	0.296016
676	C	0.727436	0.765444	0.337058
677	N	0.74628	0.76347	0.03924
678	C	0.768596	0.749217	0.03778
679	C	0.78435	0.748735	0.074715
680	C	0.715907	0.751959	0.259078
681	N	0.70219	0.75259	0.226392
682	N	0.79807	0.748102	0.107398
683	C	0.703552	0.78147	0.342643
684	H	0.712052	0.803271	0.318054
685	H	0.675577	0.76042	0.335084
686	C	0.79648	0.718968	0.991203
687	H	0.787953	0.69726	0.015926
688	H	0.82453	0.739928	0.998567
689	C	0.76383	0.537369	0.996792
690	N	0.761417	0.516488	0.294475
691	C	0.746976	0.979892	0.295871
692	C	0.733291	0.961742	0.336999
693	N	0.735686	0.982621	0.03931
694	C	0.750093	0.51921	0.037902
695	C	0.750991	0.535498	0.074959
696	C	0.746084	0.963611	0.25881
697	N	0.745078	0.949219	0.226018
698	N	0.751995	0.549894	0.107749
699	C	0.717154	0.921816	0.34254
700	H	0.695187	0.90858	0.318149
701	H	0.738076	0.914782	0.334674
702	C	0.780172	0.577323	0.991277
703	H	0.802053	0.590438	0.0158
704	H	0.759338	0.58452	0.99896
705	C	0.961524	0.72616	0.996708
706	N	0.98238	0.744862	0.294482
707	C	0.51896	0.767098	0.295926
708	C	0.537121	0.771401	0.337009
709	N	0.51627	0.752685	0.039229
710	C	0.979693	0.730419	0.037772
711	C	0.96343	0.714793	0.074745
712	C	0.53522	0.782724	0.25895
713	N	0.549595	0.796324	0.226231
714	N	0.94905	0.701185	0.107461
715	C	0.577035	0.795244	0.342594
716	H	0.590316	0.78666	0.318084
717	H	0.584005	0.823214	0.334927
718	C	0.921581	0.702493	0.991157
719	H	0.908422	0.711107	0.015803
720	H	0.91445	0.67445	0.998633
721	C	0.684882	0.814741	0.39068
722	N	0.647908	0.796055	0.390394
723	C	0.62895	0.813971	0.390684
724	N	0.647237	0.850947	0.390394
725	C	0.684114	0.869908	0.390674
726	N	0.702798	0.851618	0.390377
727	N	0.590815	0.793664	0.38762
728	H	0.580121	0.803143	0.411265
729	N	0.701943	0.908044	0.387623
730	H	0.72219	0.918731	0.411175
731	N	0.705202	0.796925	0.387623
732	H	0.695775	0.776803	0.411332
733	C	0.814309	0.684898	0.276645
734	N	0.851282	0.703045	0.27688
735	C	0.869699	0.684579	0.276555
736	N	0.850873	0.64761	0.276851
737	C	0.813991	0.629193	0.276611
738	N	0.795844	0.648015	0.276931
739	N	0.907856	0.704359	0.27954
740	H	0.918254	0.694646	0.255805
741	N	0.795606	0.591037	0.279597
742	H	0.775412	0.580641	0.255966
743	N	0.79454	0.703282	0.27963
744	H	0.8042	0.723342	0.255831
745	C	0.772777	0.735201	0.330087
746	N	0.753946	0.737197	0.627902
747	C	0.731661	0.751483	0.62935
748	C	0.727436	0.765444	0.670394
749	N	0.74628	0.76347	0.372573
750	C	0.768596	0.749217	0.371115
751	C	0.78435	0.748735	0.408048
752	C	0.715907	0.751959	0.592413
753	N	0.70219	0.75259	0.559726
754	N	0.79807	0.748102	0.440732
755	C	0.703552	0.78147	0.675975
756	H	0.712052	0.803271	0.651387
757	H	0.675577	0.76042	0.668419
758	C	0.79648	0.718968	0.324535
759	H	0.787953	0.69726	0.349261
760	H	0.82453	0.739928	0.331898
761	C	0.76383	0.537369	0.330122
762	N	0.761417	0.516488	0.627808
763	C	0.746976	0.979892	0.629204
764	C	0.733291	0.961742	0.670334
765	N	0.735686	0.982621	0.372643
766	C	0.750093	0.51921	0.371235
767	C	0.750991	0.535498	0.408295
768	C	0.746084	0.963611	0.592144
769	N	0.745078	0.949219	0.559353
770	N	0.751995	0.549894	0.441082
771	C	0.717154	0.921816	0.675875
772	H	0.695187	0.90858	0.651484
773	H	0.738076	0.914782	0.668009
774	C	0.780172	0.577323	0.32461
775	H	0.802053	0.590438	0.349134
776	H	0.759338	0.58452	0.332294
777	C	0.961524	0.72616	0.330039
778	N	0.98238	0.744862	0.627815
779	C	0.51896	0.767098	0.62926
780	C	0.537121	0.771401	0.670344
781	N	0.51627	0.752685	0.372563
782	C	0.979693	0.730419	0.371105
783	C	0.96343	0.714793	0.408078
784	C	0.53522	0.782724	0.592283
785	N	0.549595	0.796324	0.559566
786	N	0.94905	0.701185	0.440796
787	C	0.577035	0.795244	0.675929
788	H	0.590316	0.78666	0.651417
789	H	0.584005	0.823214	0.668259
790	C	0.921581	0.702493	0.324488
791	H	0.908422	0.711107	0.349138
792	H	0.91445	0.67445	0.331967
793	C	0.684882	0.814741	0.724016
794	N	0.647908	0.796055	0.723726
795	C	0.62895	0.813971	0.724016
796	N	0.647237	0.850947	0.723729
797	C	0.684114	0.869908	0.724009
798	N	0.702798	0.851618	0.723709
799	N	0.590815	0.793664	0.720955
800	H	0.580121	0.803143	0.744601
801	N	0.701943	0.908044	0.720958
802	H	0.72219	0.918731	0.744507
803	N	0.705202	0.796925	0.720958
804	H	0.695775	0.776803	0.744667
805	C	0.814309	0.684898	0.609978
806	N	0.851282	0.703045	0.610214
807	C	0.869699	0.684579	0.609888
808	N	0.850873	0.64761	0.610184
809	C	0.813991	0.629193	0.609944
810	N	0.795844	0.648015	0.610264
811	N	0.907856	0.704359	0.612875
812	H	0.918254	0.694646	0.58914
813	N	0.795606	0.591037	0.612932
814	H	0.775412	0.580641	0.589299
815	N	0.79454	0.703282	0.612965
816	H	0.8042	0.723342	0.589166
817	C	0.772777	0.735201	0.66342
818	N	0.753946	0.737197	0.961237
819	C	0.731661	0.751483	0.962682
820	C	0.727436	0.765444	0.003725
821	N	0.74628	0.76347	0.705908
822	C	0.768596	0.749217	0.704446
823	C	0.78435	0.748735	0.741383
824	C	0.715907	0.751959	0.925745
825	N	0.70219	0.75259	0.893061
826	N	0.79807	0.748102	0.774064
827	C	0.703552	0.78147	0.009308
828	H	0.712052	0.803271	0.984722
829	H	0.675577	0.76042	0.001751
830	C	0.79648	0.718968	0.657868
831	H	0.787953	0.69726	0.682593
832	H	0.82453	0.739928	0.665232
833	C	0.76383	0.537369	0.663456
834	N	0.761417	0.516488	0.961143
835	C	0.746976	0.979892	0.962539
836	C	0.733291	0.961742	0.003665
837	N	0.735686	0.982621	0.705978
838	C	0.750093	0.51921	0.70457
839	C	0.750991	0.535498	0.741627
840	C	0.746084	0.963611	0.925479
841	N	0.745078	0.949219	0.892685
842	N	0.751995	0.549894	0.774417
843	C	0.717154	0.921816	0.009208
844	H	0.695187	0.90858	0.984816
845	H	0.738076	0.914782	0.001341
846	C	0.780172	0.577323	0.657945
847	H	0.802053	0.590438	0.682466
848	H	0.759338	0.58452	0.665628
849	C	0.961524	0.72616	0.663373
850	N	0.98238	0.744862	0.96115
851	C	0.51896	0.767098	0.962592
852	C	0.537121	0.771401	0.003675
853	N	0.51627	0.752685	0.705895
854	C	0.979693	0.730419	0.70444
855	C	0.96343	0.714793	0.741413
856	C	0.53522	0.782724	0.925619
857	N	0.549595	0.796324	0.892898
858	N	0.94905	0.701185	0.774127
859	C	0.577035	0.795244	0.009261
860	H	0.590316	0.78666	0.984752
861	H	0.584005	0.823214	0.001592
862	C	0.921581	0.702493	0.657821
863	H	0.908422	0.711107	0.682469
864	H	0.91445	0.67445	0.665301
