data_C648H504_2018-02-15_10:38:56
#******************************************
#
# CIF file created by Zeo++
# Zeo++ is an open source package to
# analyze microporous materials
#
#*******************************************

_cell_length_a		44.6165   
_cell_length_b		44.6165   
_cell_length_c		29.8088   
_cell_angle_alpha		90   
_cell_angle_beta		90   
_cell_angle_gamma		120   

_symmetry_space_group_name_H-M		'P1'
_symmetry_Int_Tables_number		1
_symmetry_cell_setting		Monoclinic

loop_
_symmetry_equiv_pos_as_xyz
'+x,+y,+z'

loop_
_atom_site_label
_atom_site_type_symbol
_atom_site_fract_x
_atom_site_fract_y
_atom_site_fract_z
1	C	0.04178	0.292577	0.311367
2	C	0.023125	0.263842	0.007217
3	C	0.041632	0.253403	0.035519
4	C	0.023597	0.304596	0.280695
5	H	0.041455	0.327058	0.2608
6	H	0.007412	0.311789	0.300096
7	H	0.007235	0.283884	0.257493
8	H	0.028713	0.232896	0.056925
9	C	0.04178	0.292577	0.644702
10	C	0.023125	0.263842	0.34055
11	C	0.041632	0.253403	0.368851
12	C	0.023597	0.304596	0.614026
13	H	0.041455	0.327058	0.594133
14	H	0.007412	0.311789	0.63343
15	H	0.007235	0.283884	0.590825
16	H	0.028713	0.232896	0.390257
17	C	0.04178	0.292577	0.978033
18	C	0.023125	0.263842	0.673885
19	C	0.041632	0.253403	0.702185
20	C	0.023597	0.304596	0.947361
21	H	0.041455	0.327058	0.927467
22	H	0.007412	0.311789	0.966764
23	H	0.007235	0.283884	0.92416
24	H	0.028713	0.232896	0.723591
25	C	0.04178	0.792577	0.311367
26	C	0.023125	0.763842	0.007217
27	C	0.041631	0.753402	0.035519
28	C	0.023597	0.804596	0.280695
29	H	0.041455	0.827058	0.2608
30	H	0.007411	0.811789	0.300096
31	H	0.007234	0.783884	0.257493
32	H	0.028714	0.732897	0.056925
33	C	0.04178	0.792577	0.644702
34	C	0.023125	0.763842	0.34055
35	C	0.041631	0.753402	0.368851
36	C	0.023597	0.804596	0.614026
37	H	0.041455	0.827058	0.594133
38	H	0.007411	0.811789	0.63343
39	H	0.007234	0.783884	0.590825
40	H	0.028714	0.732897	0.390257
41	C	0.04178	0.792577	0.978033
42	C	0.023125	0.763842	0.673885
43	C	0.041631	0.753402	0.702185
44	C	0.023597	0.804596	0.947361
45	H	0.041455	0.827058	0.927467
46	H	0.007411	0.811789	0.966764
47	H	0.007234	0.783884	0.92416
48	H	0.028714	0.732897	0.723591
49	C	0.09725	0.299956	0.340315
50	C	0.078465	0.310088	0.311814
51	C	0.078023	0.271156	0.035382
52	H	0.090402	0.263193	0.057112
53	H	0.091835	0.33043	0.290344
54	C	0.09725	0.299956	0.67365
55	C	0.078465	0.310088	0.645148
56	C	0.078023	0.271156	0.368716
57	H	0.090402	0.263193	0.390445
58	H	0.091835	0.33043	0.623678
59	C	0.09725	0.299956	0.006982
60	C	0.078465	0.310088	0.978479
61	C	0.078023	0.271156	0.702047
62	H	0.090402	0.263193	0.723779
63	H	0.091835	0.33043	0.957012
64	C	0.097251	0.799956	0.340315
65	C	0.078465	0.810088	0.311814
66	C	0.078023	0.771156	0.035382
67	H	0.090403	0.763193	0.057112
68	H	0.091836	0.83043	0.290344
69	C	0.097251	0.799956	0.67365
70	C	0.078465	0.810088	0.645148
71	C	0.078023	0.771156	0.368716
72	H	0.090403	0.763193	0.390445
73	H	0.091836	0.83043	0.623678
74	C	0.097251	0.799956	0.006982
75	C	0.078465	0.810088	0.978479
76	C	0.078023	0.771156	0.702047
77	H	0.090403	0.763193	0.723779
78	H	0.091836	0.83043	0.957012
79	C	0.134408	0.318264	0.00714
80	H	0.139661	0.273806	0.007153
81	H	0.140557	0.368356	0.00716
82	C	0.134408	0.318264	0.340473
83	H	0.139661	0.273806	0.340487
84	H	0.140557	0.368356	0.340493
85	C	0.134408	0.318264	0.673807
86	H	0.139661	0.273806	0.673821
87	H	0.140557	0.368356	0.673828
88	C	0.134408	0.818264	0.00714
89	H	0.139658	0.773804	0.007153
90	H	0.140557	0.868356	0.00716
91	C	0.134408	0.818264	0.340473
92	H	0.139658	0.773804	0.340487
93	H	0.140557	0.868356	0.340493
94	C	0.134408	0.818264	0.673807
95	H	0.139658	0.773804	0.673821
96	H	0.140557	0.868356	0.673828
97	C	0.15361	0.354916	0.007172
98	C	0.190268	0.373607	0.007142
99	C	0.207719	0.354406	0.007169
100	C	0.189751	0.317746	0.007138
101	C	0.1531	0.300298	0.007169
102	H	0.23421	0.367458	0.007156
103	C	0.375143	0.188594	0.00888
104	C	0.356504	0.151951	0.008852
105	C	0.319862	0.132872	0.008883
106	C	0.301861	0.151512	0.008847
107	C	0.319423	0.188153	0.008877
108	C	0.356065	0.206156	0.008846
109	H	0.275355	0.138094	0.008932
110	H	0.369154	0.232662	0.008931
111	H	0.369921	0.138863	0.008936
112	C	0.20806	0.298898	0.340309
113	C	0.197925	0.269979	0.31181
114	C	0.215439	0.250807	0.311354
115	C	0.244172	0.260884	0.007203
116	C	0.254608	0.289826	0.035515
117	C	0.236867	0.308476	0.035363
118	H	0.24482	0.328805	0.057112
119	C	0.26271	0.242536	0.00938
120	C	0.29015	0.251537	0.31219
121	C	0.308876	0.233871	0.312233
122	C	0.300654	0.206451	0.009204
123	C	0.273256	0.197684	0.039871
124	C	0.254235	0.215346	0.040688
125	H	0.296593	0.270949	0.289309
126	H	0.328172	0.240758	0.289077
127	H	0.267397	0.178329	0.062624
128	H	0.177587	0.263011	0.290336
129	C	0.203421	0.220608	0.280675
130	H	0.18096	0.216007	0.260781
131	H	0.19623	0.19723	0.300072
132	H	0.224135	0.224963	0.257473
133	H	0.275118	0.297415	0.056916
134	C	0.225907	0.205134	0.07402
135	H	0.201476	0.197033	0.056729
136	H	0.231645	0.227081	0.095686
137	H	0.222444	0.183768	0.095421
138	C	0.20912	0.410766	0.340322
139	C	0.23804	0.429553	0.311824
140	C	0.25721	0.466236	0.311374
141	C	0.247133	0.484891	0.007228
142	C	0.218191	0.466384	0.035537
143	C	0.199546	0.42999	0.03539
144	H	0.179202	0.417612	0.057115
145	C	0.265478	0.021777	0.009404
146	C	0.256479	0.040214	0.312207
147	C	0.274146	0.076605	0.312244
148	C	0.301565	0.095806	0.009215
149	C	0.310329	0.077177	0.039891
150	C	0.292669	0.040494	0.040708
151	H	0.237066	0.027243	0.289325
152	H	0.267261	0.089014	0.289083
153	H	0.32969	0.090675	0.062635
154	H	0.245005	0.416183	0.290344
155	C	0.28741	0.48442	0.280697
156	H	0.292012	0.466562	0.2608
157	H	0.310788	0.500608	0.300095
158	H	0.283055	0.500782	0.257497
159	H	0.210594	0.479301	0.056931
160	C	0.302883	0.022381	0.074042
161	H	0.310986	0.006052	0.056752
162	H	0.280938	0.006172	0.095709
163	H	0.32425	0.040286	0.095442
164	C	0.486238	0.245302	0.009395
165	C	0.467799	0.217869	0.312194
166	C	0.43141	0.199146	0.312231
167	C	0.41221	0.207362	0.00921
168	C	0.43084	0.23475	0.03989
169	C	0.467523	0.253778	0.0407
170	H	0.480772	0.211422	0.289319
171	H	0.419001	0.179847	0.28908
172	H	0.417343	0.240619	0.062629
173	C	0.485638	0.282106	0.074033
174	H	0.501964	0.306537	0.056742
175	H	0.501848	0.276368	0.095697
176	H	0.467734	0.285566	0.095437
177	C	0.15361	0.354916	0.340507
178	C	0.190268	0.373607	0.340476
179	C	0.207719	0.354406	0.340503
180	C	0.189751	0.317746	0.340473
181	C	0.1531	0.300298	0.340503
182	H	0.23421	0.367458	0.34049
183	C	0.375143	0.188594	0.342214
184	C	0.356504	0.151951	0.342184
185	C	0.319862	0.132872	0.342218
186	C	0.301861	0.151512	0.342181
187	C	0.319423	0.188153	0.342211
188	C	0.356065	0.206156	0.342177
189	H	0.275355	0.138094	0.342265
190	H	0.369154	0.232662	0.342265
191	H	0.369921	0.138863	0.342271
192	C	0.20806	0.298898	0.673643
193	C	0.197925	0.269979	0.645145
194	C	0.215439	0.250807	0.644689
195	C	0.244172	0.260884	0.340537
196	C	0.254608	0.289826	0.368847
197	C	0.236867	0.308476	0.368696
198	H	0.24482	0.328805	0.390445
199	C	0.26271	0.242536	0.342714
200	C	0.29015	0.251537	0.645524
201	C	0.308876	0.233871	0.645567
202	C	0.300654	0.206451	0.342536
203	C	0.273256	0.197684	0.373205
204	C	0.254235	0.215346	0.37402
205	H	0.296593	0.270949	0.622641
206	H	0.328172	0.240758	0.62241
207	H	0.267397	0.178329	0.395957
208	H	0.177587	0.263011	0.623668
209	C	0.203421	0.220608	0.61401
210	H	0.18096	0.216007	0.594116
211	H	0.19623	0.19723	0.633407
212	H	0.224135	0.224963	0.590805
213	H	0.275118	0.297415	0.39025
214	C	0.225907	0.205134	0.407353
215	H	0.201476	0.197033	0.390062
216	H	0.231645	0.227081	0.429021
217	H	0.222444	0.183768	0.428756
218	C	0.20912	0.410766	0.673656
219	C	0.23804	0.429553	0.645158
220	C	0.25721	0.466236	0.644709
221	C	0.247133	0.484891	0.34056
222	C	0.218191	0.466384	0.368871
223	C	0.199546	0.42999	0.368723
224	H	0.179202	0.417612	0.390448
225	C	0.265478	0.021777	0.342738
226	C	0.256479	0.040214	0.645541
227	C	0.274146	0.076605	0.645578
228	C	0.301565	0.095806	0.34255
229	C	0.310329	0.077177	0.373225
230	C	0.292669	0.040494	0.37404
231	H	0.237066	0.027243	0.622658
232	H	0.267261	0.089014	0.622417
233	H	0.32969	0.090675	0.39597
234	H	0.245005	0.416183	0.623678
235	C	0.28741	0.48442	0.61403
236	H	0.292012	0.466562	0.594133
237	H	0.310788	0.500608	0.633427
238	H	0.283055	0.500782	0.590829
239	H	0.210594	0.479301	0.390264
240	C	0.302883	0.022381	0.407376
241	H	0.310986	0.006052	0.390086
242	H	0.280938	0.006172	0.429041
243	H	0.32425	0.040286	0.428776
244	C	0.486238	0.245302	0.342728
245	C	0.467799	0.217869	0.645527
246	C	0.43141	0.199146	0.645564
247	C	0.41221	0.207362	0.342543
248	C	0.43084	0.23475	0.373225
249	C	0.467523	0.253778	0.374034
250	H	0.480772	0.211422	0.622651
251	H	0.419001	0.179847	0.622413
252	H	0.417343	0.240619	0.395963
253	C	0.485638	0.282106	0.407366
254	H	0.501964	0.306537	0.390076
255	H	0.501848	0.276368	0.429031
256	H	0.467734	0.285566	0.428769
257	C	0.15361	0.354916	0.673838
258	C	0.190268	0.373607	0.673807
259	C	0.207719	0.354406	0.673838
260	C	0.189751	0.317746	0.673804
261	C	0.1531	0.300298	0.673834
262	H	0.23421	0.367458	0.673824
263	C	0.375143	0.188594	0.675549
264	C	0.356504	0.151951	0.675518
265	C	0.319862	0.132872	0.675549
266	C	0.301861	0.151512	0.675515
267	C	0.319423	0.188153	0.675545
268	C	0.356065	0.206156	0.675512
269	H	0.275355	0.138094	0.675599
270	H	0.369154	0.232662	0.675599
271	H	0.369921	0.138863	0.675602
272	C	0.20806	0.298898	0.006976
273	C	0.197925	0.269979	0.978476
274	C	0.215439	0.250807	0.978019
275	C	0.244172	0.260884	0.673871
276	C	0.254608	0.289826	0.702182
277	C	0.236867	0.308476	0.702031
278	H	0.24482	0.328805	0.723779
279	C	0.26271	0.242536	0.676048
280	C	0.29015	0.251537	0.978858
281	C	0.308876	0.233871	0.978898
282	C	0.300654	0.206451	0.675871
283	C	0.273256	0.197684	0.706539
284	C	0.254235	0.215346	0.707355
285	H	0.296593	0.270949	0.955976
286	H	0.328172	0.240758	0.955744
287	H	0.267397	0.178329	0.729291
288	H	0.177587	0.263011	0.957002
289	C	0.203421	0.220608	0.947341
290	H	0.18096	0.216007	0.927447
291	H	0.19623	0.19723	0.966738
292	H	0.224135	0.224963	0.924139
293	H	0.275118	0.297415	0.723585
294	C	0.225907	0.205134	0.740687
295	H	0.201476	0.197033	0.723397
296	H	0.231645	0.227081	0.762352
297	H	0.222444	0.183768	0.762087
298	C	0.20912	0.410766	0.006988
299	C	0.23804	0.429553	0.978493
300	C	0.25721	0.466236	0.97804
301	C	0.247133	0.484891	0.673895
302	C	0.218191	0.466384	0.702205
303	C	0.199546	0.42999	0.702057
304	H	0.179202	0.417612	0.723783
305	C	0.265478	0.021777	0.676072
306	C	0.256479	0.040214	0.978875
307	C	0.274146	0.076605	0.978912
308	C	0.301565	0.095806	0.675881
309	C	0.310329	0.077177	0.706559
310	C	0.292669	0.040494	0.707375
311	H	0.237066	0.027243	0.955992
312	H	0.267261	0.089014	0.955751
313	H	0.32969	0.090675	0.729301
314	H	0.245005	0.416183	0.957012
315	C	0.28741	0.48442	0.947364
316	H	0.292012	0.466562	0.927467
317	H	0.310788	0.500608	0.966761
318	H	0.283055	0.500782	0.924163
319	H	0.210594	0.479301	0.723598
320	C	0.302883	0.022381	0.74071
321	H	0.310986	0.006052	0.723417
322	H	0.280938	0.006172	0.762375
323	H	0.32425	0.040286	0.76211
324	C	0.486238	0.245302	0.676062
325	C	0.467799	0.217869	0.978862
326	C	0.43141	0.199146	0.978898
327	C	0.41221	0.207362	0.675877
328	C	0.43084	0.23475	0.706556
329	C	0.467523	0.253778	0.707368
330	H	0.480772	0.211422	0.955986
331	H	0.419001	0.179847	0.955748
332	H	0.417343	0.240619	0.729298
333	C	0.485638	0.282106	0.7407
334	H	0.501964	0.306537	0.72341
335	H	0.501848	0.276368	0.762365
336	H	0.467734	0.285566	0.762103
337	C	0.15361	0.854916	0.007172
338	C	0.190268	0.873607	0.007142
339	C	0.207719	0.854406	0.007169
340	C	0.189751	0.817746	0.007138
341	C	0.1531	0.800298	0.007169
342	H	0.23421	0.867458	0.007156
343	C	0.375144	0.688594	0.00888
344	C	0.356503	0.65195	0.008852
345	C	0.319862	0.632871	0.008883
346	C	0.30186	0.651513	0.008847
347	C	0.319422	0.688152	0.008877
348	C	0.356065	0.706157	0.008846
349	H	0.275354	0.638094	0.008932
350	H	0.369153	0.732661	0.008931
351	H	0.369921	0.638862	0.008936
352	C	0.208059	0.798898	0.340309
353	C	0.197925	0.769979	0.31181
354	C	0.215438	0.750806	0.311354
355	C	0.244172	0.760884	0.007203
356	C	0.254608	0.789826	0.035515
357	C	0.236866	0.808476	0.035363
358	H	0.24482	0.828805	0.057112
359	C	0.262709	0.742535	0.00938
360	C	0.29015	0.751536	0.31219
361	C	0.308876	0.733873	0.312233
362	C	0.300653	0.706449	0.009204
363	C	0.273255	0.697684	0.039871
364	C	0.254235	0.715347	0.040688
365	H	0.296593	0.770949	0.289309
366	H	0.328172	0.740757	0.289077
367	H	0.267397	0.67833	0.062624
368	H	0.177586	0.763012	0.290336
369	C	0.20342	0.720609	0.280675
370	H	0.18096	0.716007	0.260781
371	H	0.19623	0.697231	0.300072
372	H	0.224134	0.724962	0.257473
373	H	0.275117	0.797415	0.056916
374	C	0.225907	0.705135	0.07402
375	H	0.201476	0.697034	0.056729
376	H	0.231645	0.727081	0.095686
377	H	0.222444	0.683768	0.095421
378	C	0.209119	0.910766	0.340322
379	C	0.238039	0.929553	0.311824
380	C	0.25721	0.966236	0.311374
381	C	0.247134	0.984891	0.007228
382	C	0.218189	0.966381	0.035537
383	C	0.199545	0.92999	0.03539
384	H	0.179202	0.917612	0.057115
385	C	0.265476	0.521776	0.009404
386	C	0.256478	0.540213	0.312207
387	C	0.274144	0.576604	0.312244
388	C	0.301566	0.595807	0.009215
389	C	0.310327	0.577176	0.039891
390	C	0.292668	0.540493	0.040708
391	H	0.237066	0.527242	0.289325
392	H	0.26726	0.589014	0.289083
393	H	0.329689	0.590675	0.062635
394	H	0.245005	0.916183	0.290344
395	C	0.287409	0.98442	0.280697
396	H	0.292012	0.966562	0.2608
397	H	0.310788	0.000608	0.300095
398	H	0.283055	0.000782	0.257497
399	H	0.210593	0.979301	0.056931
400	C	0.302884	0.522382	0.074042
401	H	0.310985	0.506051	0.056752
402	H	0.280938	0.506173	0.095709
403	H	0.324249	0.540286	0.095442
404	C	0.486238	0.745301	0.009395
405	C	0.467799	0.717868	0.312194
406	C	0.431408	0.699146	0.312231
407	C	0.41221	0.707363	0.00921
408	C	0.430839	0.73475	0.03989
409	C	0.467523	0.753777	0.0407
410	H	0.48077	0.711421	0.289319
411	H	0.419	0.679847	0.28908
412	H	0.417343	0.74062	0.062629
413	C	0.485638	0.782106	0.074033
414	H	0.501965	0.806537	0.056742
415	H	0.501848	0.776368	0.095697
416	H	0.467734	0.785566	0.095437
417	C	0.15361	0.854916	0.340507
418	C	0.190268	0.873607	0.340476
419	C	0.207719	0.854406	0.340503
420	C	0.189751	0.817746	0.340473
421	C	0.1531	0.800298	0.340503
422	H	0.23421	0.867458	0.34049
423	C	0.375144	0.688594	0.342214
424	C	0.356503	0.65195	0.342184
425	C	0.319862	0.632871	0.342218
426	C	0.30186	0.651513	0.342181
427	C	0.319422	0.688152	0.342211
428	C	0.356065	0.706157	0.342177
429	H	0.275354	0.638094	0.342265
430	H	0.369153	0.732661	0.342265
431	H	0.369921	0.638862	0.342271
432	C	0.208059	0.798898	0.673643
433	C	0.197925	0.769979	0.645145
434	C	0.215438	0.750806	0.644689
435	C	0.244172	0.760884	0.340537
436	C	0.254608	0.789826	0.368847
437	C	0.236866	0.808476	0.368696
438	H	0.24482	0.828805	0.390445
439	C	0.262709	0.742535	0.342714
440	C	0.29015	0.751536	0.645524
441	C	0.308876	0.733873	0.645567
442	C	0.300653	0.706449	0.342536
443	C	0.273255	0.697684	0.373205
444	C	0.254235	0.715347	0.37402
445	H	0.296593	0.770949	0.622641
446	H	0.328172	0.740757	0.62241
447	H	0.267397	0.67833	0.395957
448	H	0.177586	0.763012	0.623668
449	C	0.20342	0.720609	0.61401
450	H	0.18096	0.716007	0.594116
451	H	0.19623	0.697231	0.633407
452	H	0.224134	0.724962	0.590805
453	H	0.275117	0.797415	0.39025
454	C	0.225907	0.705135	0.407353
455	H	0.201476	0.697034	0.390062
456	H	0.231645	0.727081	0.429021
457	H	0.222444	0.683768	0.428756
458	C	0.209119	0.910766	0.673656
459	C	0.238039	0.929553	0.645158
460	C	0.25721	0.966236	0.644709
461	C	0.247134	0.984891	0.34056
462	C	0.218189	0.966381	0.368871
463	C	0.199545	0.92999	0.368723
464	H	0.179202	0.917612	0.390448
465	C	0.265476	0.521776	0.342738
466	C	0.256478	0.540213	0.645541
467	C	0.274144	0.576604	0.645578
468	C	0.301566	0.595807	0.34255
469	C	0.310327	0.577176	0.373225
470	C	0.292668	0.540493	0.37404
471	H	0.237066	0.527242	0.622658
472	H	0.26726	0.589014	0.622417
473	H	0.329689	0.590675	0.39597
474	H	0.245005	0.916183	0.623678
475	C	0.287409	0.98442	0.61403
476	H	0.292012	0.966562	0.594133
477	H	0.310788	0.000608	0.633427
478	H	0.283055	0.000782	0.590829
479	H	0.210593	0.979301	0.390264
480	C	0.302884	0.522382	0.407376
481	H	0.310985	0.506051	0.390086
482	H	0.280938	0.506173	0.429041
483	H	0.324249	0.540286	0.428776
484	C	0.486238	0.745301	0.342728
485	C	0.467799	0.717868	0.645527
486	C	0.431408	0.699146	0.645564
487	C	0.41221	0.707363	0.342543
488	C	0.430839	0.73475	0.373225
489	C	0.467523	0.753777	0.374034
490	H	0.48077	0.711421	0.622651
491	H	0.419	0.679847	0.622413
492	H	0.417343	0.74062	0.395963
493	C	0.485638	0.782106	0.407366
494	H	0.501965	0.806537	0.390076
495	H	0.501848	0.776368	0.429031
496	H	0.467734	0.785566	0.428769
497	C	0.15361	0.854916	0.673838
498	C	0.190268	0.873607	0.673807
499	C	0.207719	0.854406	0.673838
500	C	0.189751	0.817746	0.673804
501	C	0.1531	0.800298	0.673834
502	H	0.23421	0.867458	0.673824
503	C	0.375144	0.688594	0.675549
504	C	0.356503	0.65195	0.675518
505	C	0.319862	0.632871	0.675549
506	C	0.30186	0.651513	0.675515
507	C	0.319422	0.688152	0.675545
508	C	0.356065	0.706157	0.675512
509	H	0.275354	0.638094	0.675599
510	H	0.369153	0.732661	0.675599
511	H	0.369921	0.638862	0.675602
512	C	0.208059	0.798898	0.006976
513	C	0.197925	0.769979	0.978476
514	C	0.215438	0.750806	0.978019
515	C	0.244172	0.760884	0.673871
516	C	0.254608	0.789826	0.702182
517	C	0.236866	0.808476	0.702031
518	H	0.24482	0.828805	0.723779
519	C	0.262709	0.742535	0.676048
520	C	0.29015	0.751536	0.978858
521	C	0.308876	0.733873	0.978898
522	C	0.300653	0.706449	0.675871
523	C	0.273255	0.697684	0.706539
524	C	0.254235	0.715347	0.707355
525	H	0.296593	0.770949	0.955976
526	H	0.328172	0.740757	0.955744
527	H	0.267397	0.67833	0.729291
528	H	0.177586	0.763012	0.957002
529	C	0.20342	0.720609	0.947341
530	H	0.18096	0.716007	0.927447
531	H	0.19623	0.697231	0.966738
532	H	0.224134	0.724962	0.924139
533	H	0.275117	0.797415	0.723585
534	C	0.225907	0.705135	0.740687
535	H	0.201476	0.697034	0.723397
536	H	0.231645	0.727081	0.762352
537	H	0.222444	0.683768	0.762087
538	C	0.209119	0.910766	0.006988
539	C	0.238039	0.929553	0.978493
540	C	0.25721	0.966236	0.97804
541	C	0.247134	0.984891	0.673895
542	C	0.218189	0.966381	0.702205
543	C	0.199545	0.92999	0.702057
544	H	0.179202	0.917612	0.723783
545	C	0.265476	0.521776	0.676072
546	C	0.256478	0.540213	0.978875
547	C	0.274144	0.576604	0.978912
548	C	0.301566	0.595807	0.675881
549	C	0.310327	0.577176	0.706559
550	C	0.292668	0.540493	0.707375
551	H	0.237066	0.527242	0.955992
552	H	0.26726	0.589014	0.955751
553	H	0.329689	0.590675	0.729301
554	H	0.245005	0.916183	0.957012
555	C	0.287409	0.98442	0.947364
556	H	0.292012	0.966562	0.927467
557	H	0.310788	0.000608	0.966761
558	H	0.283055	0.000782	0.924163
559	H	0.210593	0.979301	0.723598
560	C	0.302884	0.522382	0.74071
561	H	0.310985	0.506051	0.723417
562	H	0.280938	0.506173	0.762375
563	H	0.324249	0.540286	0.76211
564	C	0.486238	0.745301	0.676062
565	C	0.467799	0.717868	0.978862
566	C	0.431408	0.699146	0.978898
567	C	0.41221	0.707363	0.675877
568	C	0.430839	0.73475	0.706556
569	C	0.467523	0.753777	0.707368
570	H	0.48077	0.711421	0.955986
571	H	0.419	0.679847	0.955748
572	H	0.417343	0.74062	0.729298
573	C	0.485638	0.782106	0.7407
574	H	0.501965	0.806537	0.72341
575	H	0.501848	0.776368	0.762365
576	H	0.467734	0.785566	0.762103
577	C	0.634409	0.318264	0.00714
578	C	0.653609	0.354916	0.007172
579	C	0.690267	0.373607	0.007142
580	C	0.707719	0.354406	0.007169
581	C	0.68975	0.317746	0.007138
582	C	0.653099	0.300298	0.007169
583	H	0.734209	0.367458	0.007156
584	H	0.639661	0.273806	0.007153
585	H	0.640558	0.368356	0.00716
586	C	0.875142	0.188594	0.00888
587	C	0.856503	0.151951	0.008852
588	C	0.819864	0.132872	0.008883
589	C	0.80186	0.151512	0.008847
590	C	0.819422	0.188153	0.008877
591	C	0.856064	0.206156	0.008846
592	H	0.775355	0.138094	0.008932
593	H	0.869153	0.232662	0.008931
594	H	0.869922	0.138863	0.008936
595	C	0.70806	0.298898	0.340309
596	C	0.697924	0.269979	0.31181
597	C	0.715439	0.250807	0.311354
598	C	0.744172	0.260884	0.007203
599	C	0.754609	0.289826	0.035515
600	C	0.736867	0.308476	0.035363
601	H	0.74482	0.328805	0.057112
602	C	0.76271	0.242536	0.00938
603	C	0.79015	0.251537	0.31219
604	C	0.808875	0.233871	0.312233
605	C	0.800653	0.206451	0.009204
606	C	0.773256	0.197684	0.039871
607	C	0.754234	0.215346	0.040688
608	H	0.796593	0.270949	0.289309
609	H	0.828173	0.240758	0.289077
610	H	0.767396	0.178329	0.062624
611	H	0.677586	0.263011	0.290336
612	C	0.703421	0.220608	0.280675
613	H	0.680959	0.216007	0.260781
614	H	0.69623	0.19723	0.300072
615	H	0.724134	0.224963	0.257473
616	H	0.775116	0.297415	0.056916
617	C	0.725906	0.205134	0.07402
618	H	0.701475	0.197033	0.056729
619	H	0.731643	0.227081	0.095686
620	H	0.722444	0.183768	0.095421
621	C	0.70912	0.410766	0.340322
622	C	0.73804	0.429553	0.311824
623	C	0.757211	0.466236	0.311374
624	C	0.747133	0.484891	0.007228
625	C	0.718191	0.466384	0.035537
626	C	0.699546	0.42999	0.03539
627	H	0.679201	0.417612	0.057115
628	C	0.765477	0.021777	0.009404
629	C	0.756478	0.040214	0.312207
630	C	0.774145	0.076605	0.312244
631	C	0.801566	0.095806	0.009215
632	C	0.810328	0.077177	0.039891
633	C	0.79267	0.040494	0.040708
634	H	0.737067	0.027243	0.289325
635	H	0.76726	0.089014	0.289083
636	H	0.829689	0.090675	0.062635
637	H	0.745005	0.416183	0.290344
638	C	0.787409	0.48442	0.280697
639	H	0.792011	0.466562	0.2608
640	H	0.810787	0.500608	0.300095
641	H	0.783054	0.500782	0.257497
642	H	0.710594	0.479301	0.056931
643	C	0.802884	0.022381	0.074042
644	H	0.810985	0.006052	0.056752
645	H	0.780937	0.006172	0.095709
646	H	0.824249	0.040286	0.095442
647	C	0.597249	0.299956	0.340315
648	C	0.578466	0.310088	0.311814
649	C	0.541779	0.292577	0.311367
650	C	0.523124	0.263842	0.007217
651	C	0.541633	0.253403	0.035519
652	C	0.578024	0.271156	0.035382
653	H	0.590402	0.263193	0.057112
654	C	0.986237	0.245302	0.009395
655	C	0.967801	0.217869	0.312194
656	C	0.931409	0.199146	0.312231
657	C	0.912209	0.207362	0.00921
658	C	0.930839	0.23475	0.03989
659	C	0.967524	0.253778	0.0407
660	H	0.980771	0.211422	0.289319
661	H	0.919	0.179847	0.28908
662	H	0.917342	0.240619	0.062629
663	H	0.591835	0.33043	0.290344
664	C	0.523595	0.304596	0.280695
665	H	0.541454	0.327058	0.2608
666	H	0.507412	0.311789	0.300096
667	H	0.507235	0.283884	0.257493
668	H	0.528712	0.232896	0.056925
669	C	0.985637	0.282106	0.074033
670	H	0.001966	0.306537	0.056742
671	H	0.001849	0.276368	0.095697
672	H	0.967733	0.285566	0.095437
673	C	0.634409	0.318264	0.340473
674	C	0.653609	0.354916	0.340507
675	C	0.690267	0.373607	0.340476
676	C	0.707719	0.354406	0.340503
677	C	0.68975	0.317746	0.340473
678	C	0.653099	0.300298	0.340503
679	H	0.734209	0.367458	0.34049
680	H	0.639661	0.273806	0.340487
681	H	0.640558	0.368356	0.340493
682	C	0.875142	0.188594	0.342214
683	C	0.856503	0.151951	0.342184
684	C	0.819864	0.132872	0.342218
685	C	0.80186	0.151512	0.342181
686	C	0.819422	0.188153	0.342211
687	C	0.856064	0.206156	0.342177
688	H	0.775355	0.138094	0.342265
689	H	0.869153	0.232662	0.342265
690	H	0.869922	0.138863	0.342271
691	C	0.70806	0.298898	0.673643
692	C	0.697924	0.269979	0.645145
693	C	0.715439	0.250807	0.644689
694	C	0.744172	0.260884	0.340537
695	C	0.754609	0.289826	0.368847
696	C	0.736867	0.308476	0.368696
697	H	0.74482	0.328805	0.390445
698	C	0.76271	0.242536	0.342714
699	C	0.79015	0.251537	0.645524
700	C	0.808875	0.233871	0.645567
701	C	0.800653	0.206451	0.342536
702	C	0.773256	0.197684	0.373205
703	C	0.754234	0.215346	0.37402
704	H	0.796593	0.270949	0.622641
705	H	0.828173	0.240758	0.62241
706	H	0.767396	0.178329	0.395957
707	H	0.677586	0.263011	0.623668
708	C	0.703421	0.220608	0.61401
709	H	0.680959	0.216007	0.594116
710	H	0.69623	0.19723	0.633407
711	H	0.724134	0.224963	0.590805
712	H	0.775116	0.297415	0.39025
713	C	0.725906	0.205134	0.407353
714	H	0.701475	0.197033	0.390062
715	H	0.731643	0.227081	0.429021
716	H	0.722444	0.183768	0.428756
717	C	0.70912	0.410766	0.673656
718	C	0.73804	0.429553	0.645158
719	C	0.757211	0.466236	0.644709
720	C	0.747133	0.484891	0.34056
721	C	0.718191	0.466384	0.368871
722	C	0.699546	0.42999	0.368723
723	H	0.679201	0.417612	0.390448
724	C	0.765477	0.021777	0.342738
725	C	0.756478	0.040214	0.645541
726	C	0.774145	0.076605	0.645578
727	C	0.801566	0.095806	0.34255
728	C	0.810328	0.077177	0.373225
729	C	0.79267	0.040494	0.37404
730	H	0.737067	0.027243	0.622658
731	H	0.76726	0.089014	0.622417
732	H	0.829689	0.090675	0.39597
733	H	0.745005	0.416183	0.623678
734	C	0.787409	0.48442	0.61403
735	H	0.792011	0.466562	0.594133
736	H	0.810787	0.500608	0.633427
737	H	0.783054	0.500782	0.590829
738	H	0.710594	0.479301	0.390264
739	C	0.802884	0.022381	0.407376
740	H	0.810985	0.006052	0.390086
741	H	0.780937	0.006172	0.429041
742	H	0.824249	0.040286	0.428776
743	C	0.597249	0.299956	0.67365
744	C	0.578466	0.310088	0.645148
745	C	0.541779	0.292577	0.644702
746	C	0.523124	0.263842	0.34055
747	C	0.541633	0.253403	0.368851
748	C	0.578024	0.271156	0.368716
749	H	0.590402	0.263193	0.390445
750	C	0.986237	0.245302	0.342728
751	C	0.967801	0.217869	0.645527
752	C	0.931409	0.199146	0.645564
753	C	0.912209	0.207362	0.342543
754	C	0.930839	0.23475	0.373225
755	C	0.967524	0.253778	0.374034
756	H	0.980771	0.211422	0.622651
757	H	0.919	0.179847	0.622413
758	H	0.917342	0.240619	0.395963
759	H	0.591835	0.33043	0.623678
760	C	0.523595	0.304596	0.614026
761	H	0.541454	0.327058	0.594133
762	H	0.507412	0.311789	0.63343
763	H	0.507235	0.283884	0.590825
764	H	0.528712	0.232896	0.390257
765	C	0.985637	0.282106	0.407366
766	H	0.001966	0.306537	0.390076
767	H	0.001849	0.276368	0.429031
768	H	0.967733	0.285566	0.428769
769	C	0.634409	0.318264	0.673807
770	C	0.653609	0.354916	0.673838
771	C	0.690267	0.373607	0.673807
772	C	0.707719	0.354406	0.673838
773	C	0.68975	0.317746	0.673804
774	C	0.653099	0.300298	0.673834
775	H	0.734209	0.367458	0.673824
776	H	0.639661	0.273806	0.673821
777	H	0.640558	0.368356	0.673828
778	C	0.875142	0.188594	0.675549
779	C	0.856503	0.151951	0.675518
780	C	0.819864	0.132872	0.675549
781	C	0.80186	0.151512	0.675515
782	C	0.819422	0.188153	0.675545
783	C	0.856064	0.206156	0.675512
784	H	0.775355	0.138094	0.675599
785	H	0.869153	0.232662	0.675599
786	H	0.869922	0.138863	0.675602
787	C	0.70806	0.298898	0.006976
788	C	0.697924	0.269979	0.978476
789	C	0.715439	0.250807	0.978019
790	C	0.744172	0.260884	0.673871
791	C	0.754609	0.289826	0.702182
792	C	0.736867	0.308476	0.702031
793	H	0.74482	0.328805	0.723779
794	C	0.76271	0.242536	0.676048
795	C	0.79015	0.251537	0.978858
796	C	0.808875	0.233871	0.978898
797	C	0.800653	0.206451	0.675871
798	C	0.773256	0.197684	0.706539
799	C	0.754234	0.215346	0.707355
800	H	0.796593	0.270949	0.955976
801	H	0.828173	0.240758	0.955744
802	H	0.767396	0.178329	0.729291
803	H	0.677586	0.263011	0.957002
804	C	0.703421	0.220608	0.947341
805	H	0.680959	0.216007	0.927447
806	H	0.69623	0.19723	0.966738
807	H	0.724134	0.224963	0.924139
808	H	0.775116	0.297415	0.723585
809	C	0.725906	0.205134	0.740687
810	H	0.701475	0.197033	0.723397
811	H	0.731643	0.227081	0.762352
812	H	0.722444	0.183768	0.762087
813	C	0.70912	0.410766	0.006988
814	C	0.73804	0.429553	0.978493
815	C	0.757211	0.466236	0.97804
816	C	0.747133	0.484891	0.673895
817	C	0.718191	0.466384	0.702205
818	C	0.699546	0.42999	0.702057
819	H	0.679201	0.417612	0.723783
820	C	0.765477	0.021777	0.676072
821	C	0.756478	0.040214	0.978875
822	C	0.774145	0.076605	0.978912
823	C	0.801566	0.095806	0.675881
824	C	0.810328	0.077177	0.706559
825	C	0.79267	0.040494	0.707375
826	H	0.737067	0.027243	0.955992
827	H	0.76726	0.089014	0.955751
828	H	0.829689	0.090675	0.729301
829	H	0.745005	0.416183	0.957012
830	C	0.787409	0.48442	0.947364
831	H	0.792011	0.466562	0.927467
832	H	0.810787	0.500608	0.966761
833	H	0.783054	0.500782	0.924163
834	H	0.710594	0.479301	0.723598
835	C	0.802884	0.022381	0.74071
836	H	0.810985	0.006052	0.723417
837	H	0.780937	0.006172	0.762375
838	H	0.824249	0.040286	0.76211
839	C	0.597249	0.299956	0.006982
840	C	0.578466	0.310088	0.978479
841	C	0.541779	0.292577	0.978033
842	C	0.523124	0.263842	0.673885
843	C	0.541633	0.253403	0.702185
844	C	0.578024	0.271156	0.702047
845	H	0.590402	0.263193	0.723779
846	C	0.986237	0.245302	0.676062
847	C	0.967801	0.217869	0.978862
848	C	0.931409	0.199146	0.978898
849	C	0.912209	0.207362	0.675877
850	C	0.930839	0.23475	0.706556
851	C	0.967524	0.253778	0.707368
852	H	0.980771	0.211422	0.955986
853	H	0.919	0.179847	0.955748
854	H	0.917342	0.240619	0.729298
855	H	0.591835	0.33043	0.957012
856	C	0.523595	0.304596	0.947361
857	H	0.541454	0.327058	0.927467
858	H	0.507412	0.311789	0.966764
859	H	0.507235	0.283884	0.92416
860	H	0.528712	0.232896	0.723591
861	C	0.985637	0.282106	0.7407
862	H	0.001966	0.306537	0.72341
863	H	0.001849	0.276368	0.762365
864	H	0.967733	0.285566	0.762103
865	C	0.634409	0.818264	0.00714
866	C	0.653609	0.854916	0.007172
867	C	0.690267	0.873607	0.007142
868	C	0.707717	0.854406	0.007169
869	C	0.68975	0.817746	0.007138
870	C	0.653099	0.800298	0.007169
871	H	0.734209	0.867458	0.007156
872	H	0.639659	0.773804	0.007153
873	H	0.640557	0.868356	0.00716
874	C	0.875143	0.688594	0.00888
875	C	0.856502	0.65195	0.008852
876	C	0.819863	0.632871	0.008883
877	C	0.80186	0.651513	0.008847
878	C	0.819422	0.688152	0.008877
879	C	0.856064	0.706157	0.008846
880	H	0.775353	0.638094	0.008932
881	H	0.869153	0.732661	0.008931
882	H	0.869922	0.638862	0.008936
883	C	0.70806	0.798898	0.340309
884	C	0.697924	0.769979	0.31181
885	C	0.715438	0.750806	0.311354
886	C	0.744172	0.760884	0.007203
887	C	0.754607	0.789826	0.035515
888	C	0.736865	0.808476	0.035363
889	H	0.74482	0.828805	0.057112
890	C	0.762709	0.742535	0.00938
891	C	0.79015	0.751536	0.31219
892	C	0.808875	0.733873	0.312233
893	C	0.800653	0.706449	0.009204
894	C	0.773256	0.697684	0.039871
895	C	0.754235	0.715347	0.040688
896	H	0.796593	0.770949	0.289309
897	H	0.82817	0.740757	0.289077
898	H	0.767396	0.67833	0.062624
899	H	0.677586	0.763012	0.290336
900	C	0.703421	0.720609	0.280675
901	H	0.68096	0.716007	0.260781
902	H	0.69623	0.697231	0.300072
903	H	0.724133	0.724962	0.257473
904	H	0.775116	0.797415	0.056916
905	C	0.725906	0.705135	0.07402
906	H	0.701475	0.697034	0.056729
907	H	0.731644	0.727081	0.095686
908	H	0.722444	0.683768	0.095421
909	C	0.70912	0.910766	0.340322
910	C	0.73804	0.929553	0.311824
911	C	0.757208	0.966236	0.311374
912	C	0.747133	0.984891	0.007228
913	C	0.718188	0.966381	0.035537
914	C	0.699546	0.92999	0.03539
915	H	0.679201	0.917612	0.057115
916	C	0.765477	0.521776	0.009404
917	C	0.756478	0.540213	0.312207
918	C	0.774144	0.576604	0.312244
919	C	0.801564	0.595807	0.009215
920	C	0.810327	0.577176	0.039891
921	C	0.792667	0.540493	0.040708
922	H	0.737064	0.527242	0.289325
923	H	0.76726	0.589014	0.289083
924	H	0.829689	0.590675	0.062635
925	H	0.745005	0.916183	0.290344
926	C	0.787409	0.98442	0.280697
927	H	0.792011	0.966562	0.2608
928	H	0.810787	0.000608	0.300095
929	H	0.783054	0.000782	0.257497
930	H	0.710594	0.979301	0.056931
931	C	0.802882	0.522382	0.074042
932	H	0.810984	0.506051	0.056752
933	H	0.780938	0.506173	0.095709
934	H	0.824249	0.540286	0.095442
935	C	0.597249	0.799956	0.340315
936	C	0.578464	0.810088	0.311814
937	C	0.541779	0.792577	0.311367
938	C	0.523124	0.763842	0.007217
939	C	0.541632	0.753402	0.035519
940	C	0.578023	0.771156	0.035382
941	H	0.590402	0.763193	0.057112
942	C	0.986237	0.745301	0.009395
943	C	0.967798	0.717868	0.312194
944	C	0.931409	0.699146	0.312231
945	C	0.91221	0.707363	0.00921
946	C	0.930838	0.73475	0.03989
947	C	0.967521	0.753777	0.0407
948	H	0.98077	0.711421	0.289319
949	H	0.919	0.679847	0.28908
950	H	0.917342	0.74062	0.062629
951	H	0.591835	0.83043	0.290344
952	C	0.523596	0.804596	0.280695
953	H	0.541454	0.827058	0.2608
954	H	0.507411	0.811789	0.300096
955	H	0.507234	0.783884	0.257493
956	H	0.528713	0.732897	0.056925
957	C	0.985637	0.782106	0.074033
958	H	0.001963	0.806537	0.056742
959	H	0.001849	0.776368	0.095697
960	H	0.967733	0.785566	0.095437
961	C	0.634409	0.818264	0.340473
962	C	0.653609	0.854916	0.340507
963	C	0.690267	0.873607	0.340476
964	C	0.707717	0.854406	0.340503
965	C	0.68975	0.817746	0.340473
966	C	0.653099	0.800298	0.340503
967	H	0.734209	0.867458	0.34049
968	H	0.639659	0.773804	0.340487
969	H	0.640557	0.868356	0.340493
970	C	0.875143	0.688594	0.342214
971	C	0.856502	0.65195	0.342184
972	C	0.819863	0.632871	0.342218
973	C	0.80186	0.651513	0.342181
974	C	0.819422	0.688152	0.342211
975	C	0.856064	0.706157	0.342177
976	H	0.775353	0.638094	0.342265
977	H	0.869153	0.732661	0.342265
978	H	0.869922	0.638862	0.342271
979	C	0.70806	0.798898	0.673643
980	C	0.697924	0.769979	0.645145
981	C	0.715438	0.750806	0.644689
982	C	0.744172	0.760884	0.340537
983	C	0.754607	0.789826	0.368847
984	C	0.736865	0.808476	0.368696
985	H	0.74482	0.828805	0.390445
986	C	0.762709	0.742535	0.342714
987	C	0.79015	0.751536	0.645524
988	C	0.808875	0.733873	0.645567
989	C	0.800653	0.706449	0.342536
990	C	0.773256	0.697684	0.373205
991	C	0.754235	0.715347	0.37402
992	H	0.796593	0.770949	0.622641
993	H	0.82817	0.740757	0.62241
994	H	0.767396	0.67833	0.395957
995	H	0.677586	0.763012	0.623668
996	C	0.703421	0.720609	0.61401
997	H	0.68096	0.716007	0.594116
998	H	0.69623	0.697231	0.633407
999	H	0.724133	0.724962	0.590805
1000	H	0.775116	0.797415	0.39025
1001	C	0.725906	0.705135	0.407353
1002	H	0.701475	0.697034	0.390062
1003	H	0.731644	0.727081	0.429021
1004	H	0.722444	0.683768	0.428756
1005	C	0.70912	0.910766	0.673656
1006	C	0.73804	0.929553	0.645158
1007	C	0.757208	0.966236	0.644709
1008	C	0.747133	0.984891	0.34056
1009	C	0.718188	0.966381	0.368871
1010	C	0.699546	0.92999	0.368723
1011	H	0.679201	0.917612	0.390448
1012	C	0.765477	0.521776	0.342738
1013	C	0.756478	0.540213	0.645541
1014	C	0.774144	0.576604	0.645578
1015	C	0.801564	0.595807	0.34255
1016	C	0.810327	0.577176	0.373225
1017	C	0.792667	0.540493	0.37404
1018	H	0.737064	0.527242	0.622658
1019	H	0.76726	0.589014	0.622417
1020	H	0.829689	0.590675	0.39597
1021	H	0.745005	0.916183	0.623678
1022	C	0.787409	0.98442	0.61403
1023	H	0.792011	0.966562	0.594133
1024	H	0.810787	0.000608	0.633427
1025	H	0.783054	0.000782	0.590829
1026	H	0.710594	0.979301	0.390264
1027	C	0.802882	0.522382	0.407376
1028	H	0.810984	0.506051	0.390086
1029	H	0.780938	0.506173	0.429041
1030	H	0.824249	0.540286	0.428776
1031	C	0.597249	0.799956	0.67365
1032	C	0.578464	0.810088	0.645148
1033	C	0.541779	0.792577	0.644702
1034	C	0.523124	0.763842	0.34055
1035	C	0.541632	0.753402	0.368851
1036	C	0.578023	0.771156	0.368716
1037	H	0.590402	0.763193	0.390445
1038	C	0.986237	0.745301	0.342728
1039	C	0.967798	0.717868	0.645527
1040	C	0.931409	0.699146	0.645564
1041	C	0.91221	0.707363	0.342543
1042	C	0.930838	0.73475	0.373225
1043	C	0.967521	0.753777	0.374034
1044	H	0.98077	0.711421	0.622651
1045	H	0.919	0.679847	0.622413
1046	H	0.917342	0.74062	0.395963
1047	H	0.591835	0.83043	0.623678
1048	C	0.523596	0.804596	0.614026
1049	H	0.541454	0.827058	0.594133
1050	H	0.507411	0.811789	0.63343
1051	H	0.507234	0.783884	0.590825
1052	H	0.528713	0.732897	0.390257
1053	C	0.985637	0.782106	0.407366
1054	H	0.001963	0.806537	0.390076
1055	H	0.001849	0.776368	0.429031
1056	H	0.967733	0.785566	0.428769
1057	C	0.634409	0.818264	0.673807
1058	C	0.653609	0.854916	0.673838
1059	C	0.690267	0.873607	0.673807
1060	C	0.707717	0.854406	0.673838
1061	C	0.68975	0.817746	0.673804
1062	C	0.653099	0.800298	0.673834
1063	H	0.734209	0.867458	0.673824
1064	H	0.639659	0.773804	0.673821
1065	H	0.640557	0.868356	0.673828
1066	C	0.875143	0.688594	0.675549
1067	C	0.856502	0.65195	0.675518
1068	C	0.819863	0.632871	0.675549
1069	C	0.80186	0.651513	0.675515
1070	C	0.819422	0.688152	0.675545
1071	C	0.856064	0.706157	0.675512
1072	H	0.775353	0.638094	0.675599
1073	H	0.869153	0.732661	0.675599
1074	H	0.869922	0.638862	0.675602
1075	C	0.70806	0.798898	0.006976
1076	C	0.697924	0.769979	0.978476
1077	C	0.715438	0.750806	0.978019
1078	C	0.744172	0.760884	0.673871
1079	C	0.754607	0.789826	0.702182
1080	C	0.736865	0.808476	0.702031
1081	H	0.74482	0.828805	0.723779
1082	C	0.762709	0.742535	0.676048
1083	C	0.79015	0.751536	0.978858
1084	C	0.808875	0.733873	0.978898
1085	C	0.800653	0.706449	0.675871
1086	C	0.773256	0.697684	0.706539
1087	C	0.754235	0.715347	0.707355
1088	H	0.796593	0.770949	0.955976
1089	H	0.82817	0.740757	0.955744
1090	H	0.767396	0.67833	0.729291
1091	H	0.677586	0.763012	0.957002
1092	C	0.703421	0.720609	0.947341
1093	H	0.68096	0.716007	0.927447
1094	H	0.69623	0.697231	0.966738
1095	H	0.724133	0.724962	0.924139
1096	H	0.775116	0.797415	0.723585
1097	C	0.725906	0.705135	0.740687
1098	H	0.701475	0.697034	0.723397
1099	H	0.731644	0.727081	0.762352
1100	H	0.722444	0.683768	0.762087
1101	C	0.70912	0.910766	0.006988
1102	C	0.73804	0.929553	0.978493
1103	C	0.757208	0.966236	0.97804
1104	C	0.747133	0.984891	0.673895
1105	C	0.718188	0.966381	0.702205
1106	C	0.699546	0.92999	0.702057
1107	H	0.679201	0.917612	0.723783
1108	C	0.765477	0.521776	0.676072
1109	C	0.756478	0.540213	0.978875
1110	C	0.774144	0.576604	0.978912
1111	C	0.801564	0.595807	0.675881
1112	C	0.810327	0.577176	0.706559
1113	C	0.792667	0.540493	0.707375
1114	H	0.737064	0.527242	0.955992
1115	H	0.76726	0.589014	0.955751
1116	H	0.829689	0.590675	0.729301
1117	H	0.745005	0.916183	0.957012
1118	C	0.787409	0.98442	0.947364
1119	H	0.792011	0.966562	0.927467
1120	H	0.810787	0.000608	0.966761
1121	H	0.783054	0.000782	0.924163
1122	H	0.710594	0.979301	0.723598
1123	C	0.802882	0.522382	0.74071
1124	H	0.810984	0.506051	0.723417
1125	H	0.780938	0.506173	0.762375
1126	H	0.824249	0.540286	0.76211
1127	C	0.597249	0.799956	0.006982
1128	C	0.578464	0.810088	0.978479
1129	C	0.541779	0.792577	0.978033
1130	C	0.523124	0.763842	0.673885
1131	C	0.541632	0.753402	0.702185
1132	C	0.578023	0.771156	0.702047
1133	H	0.590402	0.763193	0.723779
1134	C	0.986237	0.745301	0.676062
1135	C	0.967798	0.717868	0.978862
1136	C	0.931409	0.699146	0.978898
1137	C	0.91221	0.707363	0.675877
1138	C	0.930838	0.73475	0.706556
1139	C	0.967521	0.753777	0.707368
1140	H	0.98077	0.711421	0.955986
1141	H	0.919	0.679847	0.955748
1142	H	0.917342	0.74062	0.729298
1143	H	0.591835	0.83043	0.957012
1144	C	0.523596	0.804596	0.947361
1145	H	0.541454	0.827058	0.927467
1146	H	0.507411	0.811789	0.966764
1147	H	0.507234	0.783884	0.92416
1148	H	0.528713	0.732897	0.723591
1149	C	0.985637	0.782106	0.7407
1150	H	0.001963	0.806537	0.72341
1151	H	0.001849	0.776368	0.762365
1152	H	0.967733	0.785566	0.762103
