data_C576H324N36O72_2018-02-15_10:39:01
#******************************************
#
# CIF file created by Zeo++
# Zeo++ is an open source package to
# analyze microporous materials
#
#*******************************************

_cell_length_a		44.5421   
_cell_length_b		44.5422   
_cell_length_c		29.7462   
_cell_angle_alpha		90   
_cell_angle_beta		90   
_cell_angle_gamma		120   

_symmetry_space_group_name_H-M		'P1'
_symmetry_Int_Tables_number		1
_symmetry_cell_setting		Monoclinic

loop_
_symmetry_equiv_pos_as_xyz
'+x,+y,+z'

loop_
_atom_site_label
_atom_site_type_symbol
_atom_site_fract_x
_atom_site_fract_y
_atom_site_fract_z
1	C	0.024405	0.262893	0.00769
2	C	0.043019	0.290901	0.311143
3	C	0.079543	0.309299	0.310874
4	C	0.098813	0.300127	0.006709
5	C	0.080023	0.271782	0.036193
6	C	0.043511	0.253548	0.036755
7	H	0.030075	0.298479	0.289678
8	H	0.09199	0.329271	0.288514
9	H	0.092818	0.264469	0.05827
10	H	0.030935	0.233153	0.058494
11	C	0.024405	0.262893	0.341022
12	C	0.043019	0.290901	0.644476
13	C	0.079543	0.309299	0.644207
14	C	0.098813	0.300127	0.340043
15	C	0.080023	0.271782	0.369526
16	C	0.043511	0.253548	0.370088
17	H	0.030075	0.298479	0.623011
18	H	0.09199	0.329271	0.621848
19	H	0.092818	0.264469	0.391603
20	H	0.030935	0.233153	0.391828
21	C	0.024405	0.262893	0.674355
22	C	0.043019	0.290901	0.977809
23	C	0.079543	0.309299	0.97754
24	C	0.098813	0.300127	0.673377
25	C	0.080023	0.271782	0.70286
26	C	0.043511	0.253548	0.703421
27	H	0.030075	0.298479	0.956344
28	H	0.09199	0.329271	0.955181
29	H	0.092818	0.264469	0.724936
30	H	0.030935	0.233153	0.725162
31	C	0.024405	0.762893	0.00769
32	C	0.04302	0.790903	0.311143
33	C	0.079542	0.809299	0.310874
34	C	0.098812	0.800127	0.006709
35	C	0.080025	0.771784	0.036193
36	C	0.043512	0.753547	0.036755
37	H	0.030075	0.798478	0.289678
38	H	0.091991	0.82927	0.288514
39	H	0.092819	0.764469	0.05827
40	H	0.030935	0.733153	0.058494
41	C	0.024405	0.762893	0.341022
42	C	0.04302	0.790903	0.644476
43	C	0.079542	0.809299	0.644207
44	C	0.098812	0.800127	0.340043
45	C	0.080025	0.771784	0.369526
46	C	0.043512	0.753547	0.370088
47	H	0.030075	0.798478	0.623011
48	H	0.091991	0.82927	0.621848
49	H	0.092819	0.764469	0.391603
50	H	0.030935	0.733153	0.391828
51	C	0.024405	0.762893	0.674355
52	C	0.04302	0.790903	0.977809
53	C	0.079542	0.809299	0.97754
54	C	0.098812	0.800127	0.673377
55	C	0.080025	0.771784	0.70286
56	C	0.043512	0.753547	0.703421
57	H	0.030075	0.798478	0.956344
58	H	0.091991	0.82927	0.955181
59	H	0.092819	0.764469	0.724936
60	H	0.030935	0.733153	0.725162
61	C	0.135974	0.318873	0.006473
62	C	0.154727	0.355583	0.006472
63	C	0.155083	0.301278	0.006467
64	H	0.141939	0.274732	0.006539
65	H	0.141327	0.368729	0.006543
66	C	0.135974	0.318873	0.339805
67	C	0.154727	0.355583	0.339805
68	C	0.155083	0.301278	0.339801
69	H	0.141939	0.274732	0.339872
70	H	0.141327	0.368729	0.339875
71	C	0.135974	0.318873	0.673138
72	C	0.154727	0.355583	0.673138
73	C	0.155083	0.301278	0.673135
74	H	0.141939	0.274732	0.673205
75	H	0.141327	0.368729	0.673209
76	C	0.135974	0.818872	0.006473
77	C	0.154728	0.855586	0.006472
78	C	0.155083	0.801278	0.006467
79	H	0.141938	0.774732	0.006539
80	H	0.141326	0.868729	0.006543
81	C	0.135974	0.818872	0.339805
82	C	0.154728	0.855586	0.339805
83	C	0.155083	0.801278	0.339801
84	H	0.141938	0.774732	0.339872
85	H	0.141326	0.868729	0.339875
86	C	0.135974	0.818872	0.673138
87	C	0.154728	0.855586	0.673138
88	C	0.155083	0.801278	0.673135
89	H	0.141938	0.774732	0.673205
90	H	0.141326	0.868729	0.673209
91	C	0.191432	0.374692	0.006473
92	C	0.191794	0.319236	0.006471
93	H	0.181402	0.264861	0.288504
94	H	0.180195	0.41785	0.058283
95	C	0.191432	0.374692	0.339808
96	C	0.191794	0.319236	0.339805
97	H	0.181402	0.264861	0.621837
98	H	0.180195	0.41785	0.391616
99	C	0.191432	0.374692	0.673138
100	C	0.191794	0.319236	0.673138
101	H	0.181402	0.264861	0.955171
102	H	0.180195	0.41785	0.72495
103	C	0.191431	0.874691	0.006473
104	C	0.191794	0.819235	0.006471
105	H	0.181402	0.76486	0.288504
106	H	0.180196	0.917849	0.058283
107	C	0.191431	0.874691	0.339808
108	C	0.191794	0.819235	0.339805
109	H	0.181402	0.76486	0.621837
110	H	0.180196	0.917849	0.391616
111	C	0.191431	0.874691	0.673138
112	C	0.191794	0.819235	0.673138
113	H	0.181402	0.76486	0.955171
114	H	0.180196	0.917849	0.72495
115	C	0.209389	0.355939	0.006469
116	H	0.235935	0.369341	0.006539
117	C	0.376551	0.18928	0.006304
118	C	0.357914	0.152634	0.006354
119	C	0.321262	0.134115	0.006308
120	C	0.303255	0.152754	0.00635
121	C	0.321387	0.189405	0.006304
122	C	0.358034	0.207412	0.006344
123	H	0.276678	0.13951	0.006586
124	H	0.371365	0.233988	0.006578
125	H	0.371157	0.139301	0.006586
126	C	0.303058	0.207865	0.006924
127	C	0.301072	0.224954	0.301418
128	C	0.282519	0.242877	0.302064
129	C	0.26607	0.244916	0.008409
130	C	0.268201	0.228006	0.047841
131	C	0.2864	0.209448	0.046475
132	H	0.287687	0.1972	0.074951
133	C	0.247777	0.26365	0.00768
134	C	0.219777	0.254264	0.311119
135	C	0.20137	0.272381	0.310865
136	C	0.210543	0.300822	0.006702
137	C	0.238893	0.310383	0.036176
138	C	0.257119	0.292096	0.036751
139	H	0.212194	0.233737	0.289662
140	H	0.246187	0.330471	0.058281
141	H	0.312776	0.224113	0.272188
142	H	0.277504	0.299904	0.058503
143	H	0.281607	0.25499	0.273253
144	N	0.251379	0.229107	0.087699
145	O	0.272604	0.24309	0.119365
146	O	0.228469	0.199304	0.099815
147	C	0.302803	0.097327	0.006929
148	C	0.285735	0.078251	0.301415
149	C	0.2678	0.041775	0.302067
150	C	0.265752	0.023288	0.008416
151	C	0.282655	0.04233	0.04785
152	C	0.301204	0.079086	0.046487
153	H	0.313452	0.092622	0.074963
154	C	0.247021	0.486263	0.007686
155	C	0.256415	0.467647	0.31114
156	C	0.238281	0.431123	0.31086
157	C	0.209845	0.411854	0.006705
158	C	0.200283	0.430643	0.036179
159	C	0.21857	0.467157	0.036752
160	H	0.276934	0.48059	0.28967
161	H	0.245814	0.418677	0.288515
162	H	0.286568	0.090796	0.272188
163	H	0.210758	0.479732	0.0585
164	H	0.25569	0.028749	0.273254
165	N	0.281547	0.024407	0.087713
166	O	0.267556	0.031647	0.119371
167	O	0.311349	0.531305	0.099843
168	C	0.413339	0.207609	0.006926
169	C	0.432416	0.209618	0.301412
170	C	0.468892	0.228164	0.302064
171	C	0.487378	0.244598	0.008417
172	C	0.468336	0.242451	0.047853
173	C	0.431578	0.224246	0.046487
174	H	0.418042	0.222951	0.074965
175	H	0.419873	0.197917	0.272181
176	H	0.481919	0.229086	0.273251
177	N	0.486256	0.259258	0.08772
178	O	0.479014	0.238021	0.119371
179	O	0.97936	0.282162	0.099858
180	C	0.209389	0.355939	0.339801
181	H	0.235935	0.369341	0.339872
182	C	0.376551	0.18928	0.339637
183	C	0.357914	0.152634	0.339687
184	C	0.321262	0.134115	0.33964
185	C	0.303255	0.152754	0.339684
186	C	0.321387	0.189405	0.339637
187	C	0.358034	0.207412	0.339677
188	H	0.276678	0.13951	0.339919
189	H	0.371365	0.233988	0.339912
190	H	0.371157	0.139301	0.339919
191	C	0.303058	0.207865	0.340255
192	C	0.301072	0.224954	0.63475
193	C	0.282519	0.242877	0.635399
194	C	0.26607	0.244916	0.341741
195	C	0.268201	0.228006	0.381175
196	C	0.2864	0.209448	0.379807
197	H	0.287687	0.1972	0.408284
198	C	0.247777	0.26365	0.341012
199	C	0.219777	0.254264	0.644452
200	C	0.20137	0.272381	0.6442
201	C	0.210543	0.300822	0.340037
202	C	0.238893	0.310383	0.369509
203	C	0.257119	0.292096	0.370084
204	H	0.212194	0.233737	0.622994
205	H	0.246187	0.330471	0.391613
206	H	0.312776	0.224113	0.605523
207	H	0.277504	0.299904	0.391835
208	H	0.281607	0.25499	0.606588
209	N	0.251379	0.229107	0.421032
210	O	0.272604	0.24309	0.4527
211	O	0.228469	0.199304	0.433148
212	C	0.302803	0.097327	0.340262
213	C	0.285735	0.078251	0.63475
214	C	0.2678	0.041775	0.635399
215	C	0.265752	0.023288	0.341748
216	C	0.282655	0.04233	0.381185
217	C	0.301204	0.079086	0.37982
218	H	0.313452	0.092622	0.408298
219	C	0.247021	0.486263	0.341018
220	C	0.256415	0.467647	0.644472
221	C	0.238281	0.431123	0.644193
222	C	0.209845	0.411854	0.340037
223	C	0.200283	0.430643	0.369513
224	C	0.21857	0.467157	0.370084
225	H	0.276934	0.48059	0.623004
226	H	0.245814	0.418677	0.621848
227	H	0.286568	0.090796	0.605523
228	H	0.210758	0.479732	0.391835
229	H	0.25569	0.028749	0.606588
230	N	0.281547	0.024407	0.421045
231	O	0.267556	0.031647	0.452703
232	O	0.311349	0.531305	0.433175
233	C	0.413339	0.207609	0.340259
234	C	0.432416	0.209618	0.634747
235	C	0.468892	0.228164	0.635399
236	C	0.487378	0.244598	0.341751
237	C	0.468336	0.242451	0.381185
238	C	0.431578	0.224246	0.37982
239	H	0.418042	0.222951	0.408298
240	H	0.419873	0.197917	0.605516
241	H	0.481919	0.229086	0.606585
242	N	0.486256	0.259258	0.421052
243	O	0.479014	0.238021	0.452703
244	O	0.97936	0.282162	0.433192
245	C	0.209389	0.355939	0.673135
246	H	0.235935	0.369341	0.673205
247	C	0.376551	0.18928	0.67297
248	C	0.357914	0.152634	0.67302
249	C	0.321262	0.134115	0.672973
250	C	0.303255	0.152754	0.673017
251	C	0.321387	0.189405	0.67297
252	C	0.358034	0.207412	0.67301
253	H	0.276678	0.13951	0.673252
254	H	0.371365	0.233988	0.673246
255	H	0.371157	0.139301	0.673252
256	C	0.303058	0.207865	0.673589
257	C	0.301072	0.224954	0.968083
258	C	0.282519	0.242877	0.968732
259	C	0.26607	0.244916	0.675075
260	C	0.268201	0.228006	0.714508
261	C	0.2864	0.209448	0.71314
262	H	0.287687	0.1972	0.741617
263	C	0.247777	0.26365	0.674345
264	C	0.219777	0.254264	0.977785
265	C	0.20137	0.272381	0.977533
266	C	0.210543	0.300822	0.67337
267	C	0.238893	0.310383	0.702843
268	C	0.257119	0.292096	0.703418
269	H	0.212194	0.233737	0.956327
270	H	0.246187	0.330471	0.724946
271	H	0.312776	0.224113	0.938856
272	H	0.277504	0.299904	0.725168
273	H	0.281607	0.25499	0.939918
274	N	0.251379	0.229107	0.754365
275	O	0.272604	0.24309	0.786033
276	O	0.228469	0.199304	0.766481
277	C	0.302803	0.097327	0.673595
278	C	0.285735	0.078251	0.968083
279	C	0.2678	0.041775	0.968732
280	C	0.265752	0.023288	0.675081
281	C	0.282655	0.04233	0.714518
282	C	0.301204	0.079086	0.713153
283	H	0.313452	0.092622	0.741631
284	C	0.247021	0.486263	0.674352
285	C	0.256415	0.467647	0.977806
286	C	0.238281	0.431123	0.977527
287	C	0.209845	0.411854	0.67337
288	C	0.200283	0.430643	0.702846
289	C	0.21857	0.467157	0.703418
290	H	0.276934	0.48059	0.956337
291	H	0.245814	0.418677	0.955181
292	H	0.286568	0.090796	0.938856
293	H	0.210758	0.479732	0.725168
294	H	0.25569	0.028749	0.939922
295	N	0.281547	0.024407	0.754379
296	O	0.267556	0.031647	0.786037
297	O	0.311349	0.531305	0.766508
298	C	0.413339	0.207609	0.673592
299	C	0.432416	0.209618	0.96808
300	C	0.468892	0.228164	0.968732
301	C	0.487378	0.244598	0.675085
302	C	0.468336	0.242451	0.714518
303	C	0.431578	0.224246	0.713153
304	H	0.418042	0.222951	0.741631
305	H	0.419873	0.197917	0.938849
306	H	0.481919	0.229086	0.939918
307	N	0.486256	0.259258	0.754386
308	O	0.479014	0.238021	0.786037
309	O	0.97936	0.282162	0.766525
310	C	0.209391	0.855941	0.006469
311	H	0.235935	0.869341	0.006539
312	C	0.376552	0.689279	0.006304
313	C	0.357913	0.652634	0.006354
314	C	0.321261	0.634114	0.006308
315	C	0.303256	0.652755	0.00635
316	C	0.321388	0.689406	0.006304
317	C	0.358034	0.707413	0.006344
318	H	0.276679	0.639511	0.006586
319	H	0.371366	0.733988	0.006578
320	H	0.371157	0.639301	0.006586
321	C	0.303058	0.707864	0.006924
322	C	0.301071	0.724953	0.301418
323	C	0.282519	0.742877	0.302064
324	C	0.266071	0.744917	0.008409
325	C	0.268202	0.728007	0.047841
326	C	0.2864	0.709448	0.046475
327	H	0.287687	0.697199	0.074951
328	C	0.247777	0.76365	0.00768
329	C	0.219778	0.754265	0.311119
330	C	0.201371	0.772381	0.310865
331	C	0.210543	0.800822	0.006702
332	C	0.238893	0.810382	0.036176
333	C	0.257119	0.792096	0.036751
334	H	0.212193	0.733736	0.289662
335	H	0.246187	0.830471	0.058281
336	H	0.312776	0.724113	0.272188
337	H	0.277504	0.799904	0.058503
338	H	0.281608	0.754991	0.273253
339	N	0.251378	0.729106	0.087699
340	O	0.272605	0.743089	0.119365
341	O	0.22847	0.699304	0.099815
342	C	0.302804	0.597328	0.006929
343	C	0.285734	0.57825	0.301415
344	C	0.267801	0.541776	0.302067
345	C	0.265753	0.523287	0.008416
346	C	0.282655	0.54233	0.04785
347	C	0.301204	0.579085	0.046487
348	H	0.313453	0.592623	0.074963
349	C	0.247021	0.986262	0.007686
350	C	0.256415	0.967646	0.31114
351	C	0.238282	0.931125	0.31086
352	C	0.209845	0.911856	0.006705
353	C	0.200283	0.930643	0.036179
354	C	0.218569	0.967156	0.036752
355	H	0.276934	0.98059	0.28967
356	H	0.245814	0.918676	0.288515
357	H	0.286568	0.590795	0.272188
358	H	0.210758	0.979732	0.0585
359	H	0.255691	0.528749	0.273254
360	N	0.281547	0.524407	0.087713
361	O	0.267556	0.531647	0.119371
362	O	0.311348	0.031306	0.099843
363	C	0.413339	0.707608	0.006926
364	C	0.432418	0.709619	0.301412
365	C	0.468892	0.728162	0.302064
366	C	0.48738	0.744598	0.008417
367	C	0.468336	0.742452	0.047853
368	C	0.431579	0.724245	0.046487
369	H	0.418043	0.722952	0.074965
370	H	0.419873	0.697917	0.272181
371	H	0.48192	0.729085	0.273251
372	N	0.486256	0.759258	0.08772
373	O	0.479015	0.738021	0.119371
374	O	0.979361	0.782162	0.099858
375	C	0.209391	0.855941	0.339801
376	H	0.235935	0.869341	0.339872
377	C	0.376552	0.689279	0.339637
378	C	0.357913	0.652634	0.339687
379	C	0.321261	0.634114	0.33964
380	C	0.303256	0.652755	0.339684
381	C	0.321388	0.689406	0.339637
382	C	0.358034	0.707413	0.339677
383	H	0.276679	0.639511	0.339919
384	H	0.371366	0.733988	0.339912
385	H	0.371157	0.639301	0.339919
386	C	0.303058	0.707864	0.340255
387	C	0.301071	0.724953	0.63475
388	C	0.282519	0.742877	0.635399
389	C	0.266071	0.744917	0.341741
390	C	0.268202	0.728007	0.381175
391	C	0.2864	0.709448	0.379807
392	H	0.287687	0.697199	0.408284
393	C	0.247777	0.76365	0.341012
394	C	0.219778	0.754265	0.644452
395	C	0.201371	0.772381	0.6442
396	C	0.210543	0.800822	0.340037
397	C	0.238893	0.810382	0.369509
398	C	0.257119	0.792096	0.370084
399	H	0.212193	0.733736	0.622994
400	H	0.246187	0.830471	0.391613
401	H	0.312776	0.724113	0.605523
402	H	0.277504	0.799904	0.391835
403	H	0.281608	0.754991	0.606588
404	N	0.251378	0.729106	0.421032
405	O	0.272605	0.743089	0.4527
406	O	0.22847	0.699304	0.433148
407	C	0.302804	0.597328	0.340262
408	C	0.285734	0.57825	0.63475
409	C	0.267801	0.541776	0.635399
410	C	0.265753	0.523287	0.341748
411	C	0.282655	0.54233	0.381185
412	C	0.301204	0.579085	0.37982
413	H	0.313453	0.592623	0.408298
414	C	0.247021	0.986262	0.341018
415	C	0.256415	0.967646	0.644472
416	C	0.238282	0.931125	0.644193
417	C	0.209845	0.911856	0.340037
418	C	0.200283	0.930643	0.369513
419	C	0.218569	0.967156	0.370084
420	H	0.276934	0.98059	0.623004
421	H	0.245814	0.918676	0.621848
422	H	0.286568	0.590795	0.605523
423	H	0.210758	0.979732	0.391835
424	H	0.255691	0.528749	0.606588
425	N	0.281547	0.524407	0.421045
426	O	0.267556	0.531647	0.452703
427	O	0.311348	0.031306	0.433175
428	C	0.413339	0.707608	0.340259
429	C	0.432418	0.709619	0.634747
430	C	0.468892	0.728162	0.635399
431	C	0.48738	0.744598	0.341751
432	C	0.468336	0.742452	0.381185
433	C	0.431579	0.724245	0.37982
434	H	0.418043	0.722952	0.408298
435	H	0.419873	0.697917	0.605516
436	H	0.48192	0.729085	0.606585
437	N	0.486256	0.759258	0.421052
438	O	0.479015	0.738021	0.452703
439	O	0.979361	0.782162	0.433192
440	C	0.209391	0.855941	0.673135
441	H	0.235935	0.869341	0.673205
442	C	0.376552	0.689279	0.67297
443	C	0.357913	0.652634	0.67302
444	C	0.321261	0.634114	0.672973
445	C	0.303256	0.652755	0.673017
446	C	0.321388	0.689406	0.67297
447	C	0.358034	0.707413	0.67301
448	H	0.276679	0.639511	0.673252
449	H	0.371366	0.733988	0.673246
450	H	0.371157	0.639301	0.673252
451	C	0.303058	0.707864	0.673589
452	C	0.301071	0.724953	0.968083
453	C	0.282519	0.742877	0.968732
454	C	0.266071	0.744917	0.675075
455	C	0.268202	0.728007	0.714508
456	C	0.2864	0.709448	0.71314
457	H	0.287687	0.697199	0.741617
458	C	0.247777	0.76365	0.674345
459	C	0.219778	0.754265	0.977785
460	C	0.201371	0.772381	0.97753
461	C	0.210543	0.800822	0.67337
462	C	0.238893	0.810382	0.702843
463	C	0.257119	0.792096	0.703418
464	H	0.212193	0.733736	0.956327
465	H	0.246187	0.830471	0.724946
466	H	0.312776	0.724113	0.938856
467	H	0.277504	0.799904	0.725168
468	H	0.281608	0.754991	0.939918
469	N	0.251378	0.729106	0.754365
470	O	0.272605	0.743089	0.786033
471	O	0.22847	0.699304	0.766481
472	C	0.302804	0.597328	0.673595
473	C	0.285734	0.57825	0.968083
474	C	0.267801	0.541776	0.968732
475	C	0.265753	0.523287	0.675081
476	C	0.282655	0.54233	0.714518
477	C	0.301204	0.579085	0.713153
478	H	0.313453	0.592623	0.741631
479	C	0.247021	0.986262	0.674352
480	C	0.256415	0.967646	0.977806
481	C	0.238282	0.931125	0.977527
482	C	0.209845	0.911856	0.67337
483	C	0.200283	0.930643	0.702846
484	C	0.218569	0.967156	0.703418
485	H	0.276934	0.98059	0.956337
486	H	0.245814	0.918676	0.955181
487	H	0.286568	0.590795	0.938856
488	H	0.210758	0.979732	0.725168
489	H	0.255691	0.528749	0.939922
490	N	0.281547	0.524407	0.754379
491	O	0.267556	0.531647	0.786037
492	O	0.311348	0.031306	0.766508
493	C	0.413339	0.707608	0.673592
494	C	0.432418	0.709619	0.96808
495	C	0.468892	0.728162	0.968732
496	C	0.48738	0.744598	0.675085
497	C	0.468336	0.742452	0.714518
498	C	0.431579	0.724245	0.713153
499	H	0.418043	0.722952	0.741631
500	H	0.419873	0.697917	0.938849
501	H	0.48192	0.729085	0.939918
502	N	0.486256	0.759258	0.754386
503	O	0.479015	0.738021	0.786037
504	O	0.979361	0.782162	0.766525
505	C	0.635975	0.318873	0.006473
506	C	0.654727	0.355583	0.006472
507	C	0.691431	0.374692	0.006473
508	C	0.709391	0.355939	0.006469
509	C	0.691796	0.319236	0.006471
510	C	0.655084	0.301278	0.006467
511	H	0.735936	0.369341	0.006539
512	H	0.641939	0.274732	0.006539
513	H	0.641328	0.368729	0.006543
514	C	0.876552	0.18928	0.006304
515	C	0.857912	0.152634	0.006354
516	C	0.821263	0.134115	0.006308
517	C	0.803256	0.152754	0.00635
518	C	0.821388	0.189405	0.006304
519	C	0.858033	0.207412	0.006344
520	H	0.77668	0.13951	0.006586
521	H	0.871366	0.233988	0.006578
522	H	0.871158	0.139301	0.006586
523	C	0.803058	0.207865	0.006924
524	C	0.801073	0.224954	0.301418
525	C	0.782519	0.242877	0.302064
526	C	0.76607	0.244916	0.008409
527	C	0.768202	0.228006	0.047841
528	C	0.786401	0.209448	0.046475
529	H	0.787688	0.1972	0.074951
530	C	0.747777	0.26365	0.00768
531	C	0.719778	0.254264	0.311119
532	C	0.701371	0.272381	0.310865
533	C	0.710544	0.300822	0.006702
534	C	0.738893	0.310383	0.036176
535	C	0.75712	0.292096	0.036751
536	H	0.712193	0.233737	0.289662
537	H	0.681401	0.264861	0.288504
538	H	0.746187	0.330471	0.058281
539	H	0.812776	0.224113	0.272188
540	H	0.777505	0.299904	0.058503
541	H	0.781607	0.25499	0.273253
542	N	0.751378	0.229107	0.087699
543	O	0.772606	0.24309	0.119365
544	O	0.728471	0.199304	0.099815
545	C	0.802804	0.097327	0.006929
546	C	0.785734	0.078251	0.301415
547	C	0.767801	0.041775	0.302067
548	C	0.765753	0.023288	0.008416
549	C	0.782656	0.04233	0.04785
550	C	0.801205	0.079086	0.046487
551	H	0.813453	0.092622	0.074963
552	C	0.747021	0.486263	0.007686
553	C	0.756415	0.467647	0.31114
554	C	0.738281	0.431123	0.31086
555	C	0.709846	0.411854	0.006705
556	C	0.700283	0.430643	0.036179
557	C	0.71857	0.467157	0.036752
558	H	0.776934	0.48059	0.28967
559	H	0.745816	0.418677	0.288515
560	H	0.680196	0.41785	0.058283
561	H	0.786569	0.090796	0.272188
562	H	0.710758	0.479732	0.0585
563	H	0.755691	0.028749	0.273254
564	N	0.781548	0.024407	0.087713
565	O	0.767555	0.031647	0.119371
566	O	0.81135	0.531305	0.099843
567	C	0.91334	0.207609	0.006926
568	C	0.932417	0.209618	0.301412
569	C	0.968894	0.228164	0.302064
570	C	0.987379	0.244598	0.008417
571	C	0.968337	0.242451	0.047853
572	C	0.93158	0.224246	0.046487
573	H	0.918043	0.222951	0.074965
574	C	0.524405	0.262893	0.00769
575	C	0.543021	0.290901	0.311143
576	C	0.579542	0.309299	0.310874
577	C	0.598812	0.300127	0.006709
578	C	0.580024	0.271782	0.036193
579	C	0.543513	0.253548	0.036755
580	H	0.530075	0.298479	0.289678
581	H	0.591991	0.329271	0.288514
582	H	0.592819	0.264469	0.05827
583	H	0.919874	0.197917	0.272181
584	H	0.530936	0.233153	0.058494
585	H	0.98192	0.229086	0.273251
586	N	0.986257	0.259258	0.08772
587	O	0.979015	0.238021	0.119371
588	O	0.479359	0.282162	0.099858
589	C	0.635975	0.318873	0.339805
590	C	0.654727	0.355583	0.339805
591	C	0.691431	0.374692	0.339808
592	C	0.709391	0.355939	0.339801
593	C	0.691796	0.319236	0.339805
594	C	0.655084	0.301278	0.339801
595	H	0.735936	0.369341	0.339872
596	H	0.641939	0.274732	0.339872
597	H	0.641328	0.368729	0.339875
598	C	0.876552	0.18928	0.339637
599	C	0.857912	0.152634	0.339687
600	C	0.821263	0.134115	0.33964
601	C	0.803256	0.152754	0.339684
602	C	0.821388	0.189405	0.339637
603	C	0.858033	0.207412	0.339677
604	H	0.77668	0.13951	0.339919
605	H	0.871366	0.233988	0.339912
606	H	0.871158	0.139301	0.339919
607	C	0.803058	0.207865	0.340255
608	C	0.801073	0.224954	0.63475
609	C	0.782519	0.242877	0.635399
610	C	0.76607	0.244916	0.341741
611	C	0.768202	0.228006	0.381175
612	C	0.786401	0.209448	0.379807
613	H	0.787688	0.1972	0.408284
614	C	0.747777	0.26365	0.341012
615	C	0.719778	0.254264	0.644452
616	C	0.701371	0.272381	0.6442
617	C	0.710544	0.300822	0.340037
618	C	0.738893	0.310383	0.369509
619	C	0.75712	0.292096	0.370084
620	H	0.712193	0.233737	0.622994
621	H	0.681401	0.264861	0.621837
622	H	0.746187	0.330471	0.391613
623	H	0.812776	0.224113	0.605523
624	H	0.777505	0.299904	0.391835
625	H	0.781607	0.25499	0.606588
626	N	0.751378	0.229107	0.421032
627	O	0.772606	0.24309	0.4527
628	O	0.728471	0.199304	0.433148
629	C	0.802804	0.097327	0.340262
630	C	0.785734	0.078251	0.63475
631	C	0.767801	0.041775	0.635399
632	C	0.765753	0.023288	0.341748
633	C	0.782656	0.04233	0.381185
634	C	0.801205	0.079086	0.37982
635	H	0.813453	0.092622	0.408298
636	C	0.747021	0.486263	0.341018
637	C	0.756415	0.467647	0.644472
638	C	0.738281	0.431123	0.644193
639	C	0.709846	0.411854	0.340037
640	C	0.700283	0.430643	0.369513
641	C	0.71857	0.467157	0.370084
642	H	0.776934	0.48059	0.623004
643	H	0.745816	0.418677	0.621848
644	H	0.680196	0.41785	0.391616
645	H	0.786569	0.090796	0.605523
646	H	0.710758	0.479732	0.391835
647	H	0.755691	0.028749	0.606588
648	N	0.781548	0.024407	0.421045
649	O	0.767555	0.031647	0.452703
650	O	0.81135	0.531305	0.433175
651	C	0.91334	0.207609	0.340259
652	C	0.932417	0.209618	0.634747
653	C	0.968894	0.228164	0.635399
654	C	0.987379	0.244598	0.341751
655	C	0.968337	0.242451	0.381185
656	C	0.93158	0.224246	0.37982
657	H	0.918043	0.222951	0.408298
658	C	0.524405	0.262893	0.341022
659	C	0.543021	0.290901	0.644476
660	C	0.579542	0.309299	0.644207
661	C	0.598812	0.300127	0.340043
662	C	0.580024	0.271782	0.369526
663	C	0.543513	0.253548	0.370088
664	H	0.530075	0.298479	0.623011
665	H	0.591991	0.329271	0.621848
666	H	0.592819	0.264469	0.391603
667	H	0.919874	0.197917	0.605516
668	H	0.530936	0.233153	0.391828
669	H	0.98192	0.229086	0.606585
670	N	0.986257	0.259258	0.421052
671	O	0.979015	0.238021	0.452703
672	O	0.479359	0.282162	0.433192
673	C	0.635975	0.318873	0.673138
674	C	0.654727	0.355583	0.673138
675	C	0.691431	0.374692	0.673138
676	C	0.709391	0.355939	0.673135
677	C	0.691796	0.319236	0.673138
678	C	0.655084	0.301278	0.673135
679	H	0.735936	0.369341	0.673205
680	H	0.641939	0.274732	0.673205
681	H	0.641328	0.368729	0.673209
682	C	0.876552	0.18928	0.67297
683	C	0.857912	0.152634	0.67302
684	C	0.821263	0.134115	0.672973
685	C	0.803256	0.152754	0.673017
686	C	0.821388	0.189405	0.67297
687	C	0.858033	0.207412	0.67301
688	H	0.77668	0.13951	0.673252
689	H	0.871366	0.233988	0.673246
690	H	0.871158	0.139301	0.673252
691	C	0.803058	0.207865	0.673589
692	C	0.801073	0.224954	0.968083
693	C	0.782519	0.242877	0.968732
694	C	0.76607	0.244916	0.675075
695	C	0.768202	0.228006	0.714508
696	C	0.786401	0.209448	0.71314
697	H	0.787688	0.1972	0.741617
698	C	0.747777	0.26365	0.674345
699	C	0.719778	0.254264	0.977785
700	C	0.701371	0.272381	0.977533
701	C	0.710544	0.300822	0.67337
702	C	0.738893	0.310383	0.702843
703	C	0.75712	0.292096	0.703418
704	H	0.712193	0.233737	0.956327
705	H	0.681401	0.264861	0.955171
706	H	0.746187	0.330471	0.724946
707	H	0.812776	0.224113	0.938856
708	H	0.777505	0.299904	0.725168
709	H	0.781607	0.25499	0.939918
710	N	0.751378	0.229107	0.754365
711	O	0.772606	0.24309	0.786033
712	O	0.728471	0.199304	0.766481
713	C	0.802804	0.097327	0.673595
714	C	0.785734	0.078251	0.968083
715	C	0.767801	0.041775	0.968732
716	C	0.765753	0.023288	0.675081
717	C	0.782656	0.04233	0.714518
718	C	0.801205	0.079086	0.713153
719	H	0.813453	0.092622	0.741631
720	C	0.747021	0.486263	0.674352
721	C	0.756415	0.467647	0.977806
722	C	0.738281	0.431123	0.977527
723	C	0.709846	0.411854	0.67337
724	C	0.700283	0.430643	0.702846
725	C	0.71857	0.467157	0.703418
726	H	0.776934	0.48059	0.956337
727	H	0.745816	0.418677	0.955181
728	H	0.680196	0.41785	0.72495
729	H	0.786569	0.090796	0.938856
730	H	0.710758	0.479732	0.725168
731	H	0.755691	0.028749	0.939922
732	N	0.781548	0.024407	0.754379
733	O	0.767555	0.031647	0.786037
734	O	0.81135	0.531305	0.766508
735	C	0.91334	0.207609	0.673592
736	C	0.932417	0.209618	0.96808
737	C	0.968894	0.228164	0.968732
738	C	0.987379	0.244598	0.675085
739	C	0.968337	0.242451	0.714518
740	C	0.93158	0.224246	0.713153
741	H	0.918043	0.222951	0.741631
742	C	0.524405	0.262893	0.674355
743	C	0.543021	0.290901	0.977809
744	C	0.579542	0.309299	0.97754
745	C	0.598812	0.300127	0.673377
746	C	0.580024	0.271782	0.70286
747	C	0.543513	0.253548	0.703421
748	H	0.530075	0.298479	0.956344
749	H	0.591991	0.329271	0.955181
750	H	0.592819	0.264469	0.724936
751	H	0.919874	0.197917	0.938849
752	H	0.530936	0.233153	0.725162
753	H	0.98192	0.229086	0.939918
754	N	0.986257	0.259258	0.754386
755	O	0.979015	0.238021	0.786037
756	O	0.479359	0.282162	0.766525
757	C	0.635976	0.818872	0.006473
758	C	0.65473	0.855586	0.006472
759	C	0.691432	0.874691	0.006473
760	C	0.70939	0.855941	0.006469
761	C	0.691794	0.819235	0.006471
762	C	0.655085	0.801278	0.006467
763	H	0.735937	0.869341	0.006539
764	H	0.641939	0.774732	0.006539
765	H	0.641327	0.868729	0.006543
766	C	0.876553	0.689279	0.006304
767	C	0.857913	0.652634	0.006354
768	C	0.821261	0.634114	0.006308
769	C	0.803255	0.652755	0.00635
770	C	0.821388	0.689406	0.006304
771	C	0.858035	0.707413	0.006344
772	H	0.776679	0.639511	0.006586
773	H	0.871367	0.733988	0.006578
774	H	0.871156	0.639301	0.006586
775	C	0.803059	0.707864	0.006924
776	C	0.801071	0.724953	0.301418
777	C	0.78252	0.742877	0.302064
778	C	0.766071	0.744917	0.008409
779	C	0.768202	0.728007	0.047841
780	C	0.786402	0.709448	0.046475
781	H	0.787688	0.697199	0.074951
782	C	0.747778	0.76365	0.00768
783	C	0.719778	0.754265	0.311119
784	C	0.701372	0.772381	0.310865
785	C	0.710543	0.800822	0.006702
786	C	0.738894	0.810382	0.036176
787	C	0.757118	0.792096	0.036751
788	H	0.712194	0.733736	0.289662
789	H	0.681402	0.76486	0.288504
790	H	0.746188	0.830471	0.058281
791	H	0.812777	0.724113	0.272188
792	H	0.777504	0.799904	0.058503
793	H	0.781608	0.754991	0.273253
794	N	0.751379	0.729106	0.087699
795	O	0.772604	0.743089	0.119365
796	O	0.72847	0.699304	0.099815
797	C	0.802803	0.597328	0.006929
798	C	0.785735	0.57825	0.301415
799	C	0.767803	0.541776	0.302067
800	C	0.765754	0.523287	0.008416
801	C	0.782655	0.54233	0.04785
802	C	0.801205	0.579085	0.046487
803	H	0.813454	0.592623	0.074963
804	C	0.747022	0.986262	0.007686
805	C	0.756416	0.967646	0.31114
806	C	0.738283	0.931125	0.31086
807	C	0.709846	0.911856	0.006705
808	C	0.700284	0.930643	0.036179
809	C	0.71857	0.967156	0.036752
810	H	0.776935	0.98059	0.28967
811	H	0.745814	0.918676	0.288515
812	H	0.680196	0.917849	0.058283
813	H	0.786569	0.590795	0.272188
814	H	0.710759	0.979732	0.0585
815	H	0.755692	0.528749	0.273254
816	N	0.781549	0.524407	0.087713
817	O	0.767556	0.531647	0.119371
818	O	0.81135	0.031306	0.099843
819	C	0.91334	0.707608	0.006926
820	C	0.932419	0.709619	0.301412
821	C	0.968892	0.728162	0.302064
822	C	0.987381	0.744598	0.008417
823	C	0.968336	0.742452	0.047853
824	C	0.93158	0.724245	0.046487
825	H	0.918045	0.722952	0.074965
826	C	0.524406	0.762893	0.00769
827	C	0.543021	0.790903	0.311143
828	C	0.579543	0.809299	0.310874
829	C	0.598814	0.800127	0.006709
830	C	0.580025	0.771784	0.036193
831	C	0.543512	0.753547	0.036755
832	H	0.530075	0.798478	0.289678
833	H	0.591991	0.82927	0.288514
834	H	0.592819	0.764469	0.05827
835	H	0.919873	0.697917	0.272181
836	H	0.530935	0.733153	0.058494
837	H	0.981921	0.729085	0.273251
838	N	0.986256	0.759258	0.08772
839	O	0.979016	0.738021	0.119371
840	O	0.47936	0.782162	0.099858
841	C	0.635976	0.818872	0.339805
842	C	0.65473	0.855586	0.339805
843	C	0.691432	0.874691	0.339808
844	C	0.70939	0.855941	0.339801
845	C	0.691794	0.819235	0.339805
846	C	0.655085	0.801278	0.339801
847	H	0.735937	0.869341	0.339872
848	H	0.641939	0.774732	0.339872
849	H	0.641327	0.868729	0.339875
850	C	0.876553	0.689279	0.339637
851	C	0.857913	0.652634	0.339687
852	C	0.821261	0.634114	0.33964
853	C	0.803255	0.652755	0.339684
854	C	0.821388	0.689406	0.339637
855	C	0.858035	0.707413	0.339677
856	H	0.776679	0.639511	0.339919
857	H	0.871367	0.733988	0.339912
858	H	0.871156	0.639301	0.339919
859	C	0.803059	0.707864	0.340255
860	C	0.801071	0.724953	0.63475
861	C	0.78252	0.742877	0.635399
862	C	0.766071	0.744917	0.341741
863	C	0.768202	0.728007	0.381175
864	C	0.786402	0.709448	0.379807
865	H	0.787688	0.697199	0.408284
866	C	0.747778	0.76365	0.341012
867	C	0.719778	0.754265	0.644452
868	C	0.701372	0.772381	0.6442
869	C	0.710543	0.800822	0.340037
870	C	0.738894	0.810382	0.369509
871	C	0.757118	0.792096	0.370084
872	H	0.712194	0.733736	0.622994
873	H	0.681402	0.76486	0.621837
874	H	0.746188	0.830471	0.391613
875	H	0.812777	0.724113	0.605523
876	H	0.777504	0.799904	0.391835
877	H	0.781608	0.754991	0.606588
878	N	0.751379	0.729106	0.421032
879	O	0.772604	0.743089	0.4527
880	O	0.72847	0.699304	0.433148
881	C	0.802803	0.597328	0.340262
882	C	0.785735	0.57825	0.63475
883	C	0.767803	0.541776	0.635399
884	C	0.765754	0.523287	0.341748
885	C	0.782655	0.54233	0.381185
886	C	0.801205	0.579085	0.37982
887	H	0.813454	0.592623	0.408298
888	C	0.747022	0.986262	0.341018
889	C	0.756416	0.967646	0.644472
890	C	0.738283	0.931125	0.644193
891	C	0.709846	0.911856	0.340037
892	C	0.700284	0.930643	0.369513
893	C	0.71857	0.967156	0.370084
894	H	0.776935	0.98059	0.623004
895	H	0.745814	0.918676	0.621848
896	H	0.680196	0.917849	0.391616
897	H	0.786569	0.590795	0.605523
898	H	0.710759	0.979732	0.391835
899	H	0.755692	0.528749	0.606588
900	N	0.781549	0.524407	0.421045
901	O	0.767556	0.531647	0.452703
902	O	0.81135	0.031306	0.433175
903	C	0.91334	0.707608	0.340259
904	C	0.932419	0.709619	0.634747
905	C	0.968892	0.728162	0.635399
906	C	0.987381	0.744598	0.341751
907	C	0.968336	0.742452	0.381185
908	C	0.93158	0.724245	0.37982
909	H	0.918045	0.722952	0.408298
910	C	0.524406	0.762893	0.341022
911	C	0.543021	0.790903	0.644476
912	C	0.579543	0.809299	0.644207
913	C	0.598814	0.800127	0.340043
914	C	0.580025	0.771784	0.369526
915	C	0.543512	0.753547	0.370088
916	H	0.530075	0.798478	0.623011
917	H	0.591991	0.82927	0.621848
918	H	0.592819	0.764469	0.391603
919	H	0.919873	0.697917	0.605516
920	H	0.530935	0.733153	0.391828
921	H	0.981921	0.729085	0.606585
922	N	0.986256	0.759258	0.421052
923	O	0.979016	0.738021	0.452703
924	O	0.47936	0.782162	0.433192
925	C	0.635976	0.818872	0.673138
926	C	0.65473	0.855586	0.673138
927	C	0.691432	0.874691	0.673138
928	C	0.70939	0.855941	0.673135
929	C	0.691794	0.819235	0.673138
930	C	0.655085	0.801278	0.673135
931	H	0.735937	0.869341	0.673205
932	H	0.641939	0.774732	0.673205
933	H	0.641327	0.868729	0.673209
934	C	0.876553	0.689279	0.67297
935	C	0.857913	0.652634	0.67302
936	C	0.821261	0.634114	0.672973
937	C	0.803255	0.652755	0.673017
938	C	0.821388	0.689406	0.67297
939	C	0.858035	0.707413	0.67301
940	H	0.776679	0.639511	0.673252
941	H	0.871367	0.733988	0.673246
942	H	0.871156	0.639301	0.673252
943	C	0.803059	0.707864	0.673589
944	C	0.801071	0.724953	0.968083
945	C	0.78252	0.742877	0.968732
946	C	0.766071	0.744917	0.675075
947	C	0.768202	0.728007	0.714508
948	C	0.786402	0.709448	0.71314
949	H	0.787688	0.697199	0.741617
950	C	0.747778	0.76365	0.674345
951	C	0.719778	0.754265	0.977785
952	C	0.701372	0.772381	0.97753
953	C	0.710543	0.800822	0.67337
954	C	0.738894	0.810382	0.702843
955	C	0.757118	0.792096	0.703418
956	H	0.712194	0.733736	0.956327
957	H	0.681402	0.76486	0.955171
958	H	0.746188	0.830471	0.724946
959	H	0.812777	0.724113	0.938856
960	H	0.777504	0.799904	0.725168
961	H	0.781608	0.754991	0.939918
962	N	0.751379	0.729106	0.754365
963	O	0.772604	0.743089	0.786033
964	O	0.72847	0.699304	0.766481
965	C	0.802803	0.597328	0.673595
966	C	0.785735	0.57825	0.968083
967	C	0.767803	0.541776	0.968732
968	C	0.765754	0.523287	0.675081
969	C	0.782655	0.54233	0.714518
970	C	0.801205	0.579085	0.713153
971	H	0.813454	0.592623	0.741631
972	C	0.747022	0.986262	0.674352
973	C	0.756416	0.967646	0.977806
974	C	0.738283	0.931125	0.977527
975	C	0.709846	0.911856	0.67337
976	C	0.700284	0.930643	0.702846
977	C	0.71857	0.967156	0.703418
978	H	0.776935	0.98059	0.956337
979	H	0.745814	0.918676	0.955181
980	H	0.680196	0.917849	0.72495
981	H	0.786569	0.590795	0.938856
982	H	0.710759	0.979732	0.725168
983	H	0.755692	0.528749	0.939922
984	N	0.781549	0.524407	0.754379
985	O	0.767556	0.531647	0.786037
986	O	0.81135	0.031306	0.766508
987	C	0.91334	0.707608	0.673592
988	C	0.932419	0.709619	0.96808
989	C	0.968892	0.728162	0.968732
990	C	0.987381	0.744598	0.675085
991	C	0.968336	0.742452	0.714518
992	C	0.93158	0.724245	0.713153
993	H	0.918045	0.722952	0.741631
994	C	0.524406	0.762893	0.674355
995	C	0.543021	0.790903	0.977809
996	C	0.579543	0.809299	0.97754
997	C	0.598814	0.800127	0.673377
998	C	0.580025	0.771784	0.70286
999	C	0.543512	0.753547	0.703421
1000	H	0.530075	0.798478	0.956344
1001	H	0.591991	0.82927	0.955181
1002	H	0.592819	0.764469	0.724936
1003	H	0.919873	0.697917	0.938849
1004	H	0.530935	0.733153	0.725162
1005	H	0.981921	0.729085	0.939918
1006	N	0.986256	0.759258	0.754386
1007	O	0.979016	0.738021	0.786037
1008	O	0.47936	0.782162	0.766525
