data_C576H360_2018-02-15_10:38:55
#******************************************
#
# CIF file created by Zeo++
# Zeo++ is an open source package to
# analyze microporous materials
#
#*******************************************

_cell_length_a		44.8017   
_cell_length_b		44.8017   
_cell_length_c		29.7832   
_cell_angle_alpha		90   
_cell_angle_beta		90   
_cell_angle_gamma		120   

_symmetry_space_group_name_H-M		'P1'
_symmetry_Int_Tables_number		1
_symmetry_cell_setting		Monoclinic

loop_
_symmetry_equiv_pos_as_xyz
'+x,+y,+z'

loop_
_atom_site_label
_atom_site_type_symbol
_atom_site_fract_x
_atom_site_fract_y
_atom_site_fract_z
1	C	0.080487	0.291156	0.296324
2	C	0.044182	0.273002	0.296579
3	C	0.024351	0.263084	0.336948
4	C	0.044239	0.273027	0.043938
5	C	0.080543	0.29118	0.044106
6	H	0.03298	0.267393	0.074758
7	H	0.09336	0.297587	0.074175
8	H	0.093261	0.297543	0.266225
9	H	0.03288	0.267352	0.265787
10	C	0.080487	0.291156	0.629657
11	C	0.044182	0.273002	0.629912
12	C	0.024351	0.263084	0.670283
13	C	0.044239	0.273027	0.377273
14	C	0.080543	0.29118	0.377441
15	H	0.03298	0.267393	0.408092
16	H	0.09336	0.297587	0.407508
17	H	0.093261	0.297543	0.599559
18	H	0.03288	0.267352	0.599119
19	C	0.080487	0.291156	0.962992
20	C	0.044182	0.273002	0.963247
21	C	0.024351	0.263084	0.003615
22	C	0.044239	0.273027	0.710605
23	C	0.080543	0.29118	0.710773
24	H	0.03298	0.267393	0.741424
25	H	0.09336	0.297587	0.740843
26	H	0.093261	0.297543	0.932891
27	H	0.03288	0.267352	0.932455
28	C	0.080486	0.791156	0.296324
29	C	0.044183	0.773004	0.296579
30	C	0.024352	0.763086	0.336948
31	C	0.044239	0.773027	0.043938
32	C	0.080544	0.791182	0.044106
33	H	0.032981	0.767393	0.074758
34	H	0.093362	0.797587	0.074175
35	H	0.093263	0.797546	0.266225
36	H	0.03288	0.767352	0.265787
37	C	0.080486	0.791156	0.629657
38	C	0.044183	0.773004	0.629912
39	C	0.024352	0.763086	0.670283
40	C	0.044239	0.773027	0.377273
41	C	0.080544	0.791182	0.377441
42	H	0.032981	0.767393	0.408092
43	H	0.093362	0.797587	0.407508
44	H	0.093263	0.797546	0.599559
45	H	0.03288	0.767352	0.599119
46	C	0.080486	0.791156	0.962992
47	C	0.044183	0.773004	0.963247
48	C	0.024352	0.763086	0.003615
49	C	0.044239	0.773027	0.710605
50	C	0.080544	0.791182	0.710773
51	H	0.032981	0.767393	0.741424
52	H	0.093362	0.797587	0.740843
53	H	0.093263	0.797546	0.932891
54	H	0.03288	0.767352	0.932455
55	C	0.135577	0.318698	0.003488
56	C	0.099088	0.300458	0.336861
57	C	0.135577	0.318698	0.336821
58	C	0.099088	0.300458	0.670193
59	C	0.135577	0.318698	0.670152
60	C	0.099088	0.300458	0.003528
61	C	0.135578	0.818701	0.003488
62	C	0.09909	0.800458	0.336861
63	C	0.135578	0.818701	0.336821
64	C	0.09909	0.800458	0.670193
65	C	0.135578	0.818701	0.670152
66	C	0.09909	0.800458	0.003528
67	C	0.153991	0.355119	0.003488
68	C	0.153977	0.30068	0.003488
69	H	0.140762	0.274259	0.003501
70	H	0.140785	0.368333	0.003505
71	C	0.153991	0.355119	0.336821
72	C	0.153977	0.30068	0.336821
73	H	0.140762	0.274259	0.336834
74	H	0.140785	0.368333	0.336837
75	C	0.153991	0.355119	0.670156
76	C	0.153977	0.30068	0.670156
77	H	0.140762	0.274259	0.670169
78	H	0.140785	0.368333	0.670169
79	C	0.15399	0.855119	0.003488
80	C	0.153977	0.80068	0.003488
81	H	0.140763	0.774259	0.003501
82	H	0.140787	0.868335	0.003505
83	C	0.15399	0.855119	0.336821
84	C	0.153977	0.80068	0.336821
85	H	0.140763	0.774259	0.336834
86	H	0.140787	0.868335	0.336837
87	C	0.15399	0.855119	0.670156
88	C	0.153977	0.80068	0.670156
89	H	0.140763	0.774259	0.670169
90	H	0.140787	0.868335	0.670169
91	C	0.190411	0.373519	0.003488
92	C	0.208417	0.355106	0.003488
93	C	0.190396	0.318688	0.003488
94	H	0.234838	0.368312	0.003501
95	C	0.375342	0.188579	0.003791
96	C	0.356926	0.152159	0.00379
97	C	0.320506	0.133759	0.003791
98	C	0.3025	0.152172	0.00379
99	C	0.320522	0.188592	0.003791
100	C	0.356942	0.2066	0.00379
101	H	0.27608	0.138968	0.003776
102	H	0.370157	0.23302	0.003776
103	H	0.370133	0.138944	0.003775
104	C	0.208633	0.300438	0.336861
105	C	0.217933	0.291138	0.296323
106	C	0.23609	0.272991	0.296578
107	C	0.24601	0.263081	0.336948
108	C	0.236066	0.273025	0.043938
109	C	0.217908	0.291169	0.044107
110	H	0.241701	0.267401	0.074759
111	H	0.211503	0.297582	0.074175
112	C	0.264909	0.244198	0.003662
113	C	0.274856	0.234259	0.296673
114	C	0.293013	0.216112	0.296504
115	C	0.302286	0.206842	0.003752
116	C	0.292983	0.216139	0.044289
117	C	0.274826	0.234285	0.044033
118	H	0.269225	0.239886	0.265853
119	H	0.299421	0.209703	0.266436
120	H	0.299369	0.20975	0.074387
121	H	0.211545	0.297525	0.266224
122	H	0.269171	0.239932	0.074826
123	H	0.241742	0.267342	0.265786
124	C	0.208663	0.410009	0.336861
125	C	0.217965	0.428612	0.296324
126	C	0.236109	0.464914	0.29658
127	C	0.246018	0.484747	0.336948
128	C	0.236076	0.464858	0.043937
129	C	0.217932	0.428555	0.044106
130	H	0.2417	0.476118	0.074757
131	H	0.211522	0.415738	0.074175
132	C	0.264899	0.022532	0.003662
133	C	0.274836	0.04242	0.296674
134	C	0.292982	0.078724	0.296505
135	C	0.302255	0.09727	0.003752
136	C	0.292956	0.078667	0.044288
137	C	0.27481	0.042363	0.044032
138	H	0.269209	0.03116	0.265854
139	H	0.29939	0.091541	0.266437
140	H	0.299343	0.091442	0.074386
141	H	0.211579	0.415836	0.266225
142	H	0.269163	0.03106	0.074824
143	H	0.24176	0.476219	0.265787
144	C	0.486567	0.244192	0.003662
145	C	0.466678	0.234247	0.296674
146	C	0.430374	0.216094	0.296505
147	C	0.411829	0.206819	0.003752
148	C	0.430432	0.216124	0.044288
149	C	0.466735	0.234278	0.044032
150	H	0.477939	0.239878	0.265854
151	H	0.417557	0.209686	0.266437
152	H	0.417657	0.209738	0.074386
153	H	0.478037	0.239932	0.074825
154	C	0.190411	0.373519	0.336821
155	C	0.208417	0.355106	0.336821
156	C	0.190396	0.318688	0.336821
157	H	0.234838	0.368312	0.336837
158	C	0.375342	0.188579	0.337126
159	C	0.356926	0.152159	0.337123
160	C	0.320506	0.133759	0.337126
161	C	0.3025	0.152172	0.337123
162	C	0.320522	0.188592	0.337126
163	C	0.356942	0.2066	0.337123
164	H	0.27608	0.138968	0.337109
165	H	0.370157	0.23302	0.337109
166	H	0.370133	0.138944	0.337109
167	C	0.208633	0.300438	0.670193
168	C	0.217933	0.291138	0.629657
169	C	0.23609	0.272991	0.629912
170	C	0.24601	0.263081	0.670283
171	C	0.236066	0.273025	0.377273
172	C	0.217908	0.291169	0.377441
173	H	0.241701	0.267401	0.408092
174	H	0.211503	0.297582	0.407508
175	C	0.264909	0.244198	0.336995
176	C	0.274856	0.234259	0.630006
177	C	0.293013	0.216112	0.629838
178	C	0.302286	0.206842	0.337086
179	C	0.292983	0.216139	0.377622
180	C	0.274826	0.234285	0.377367
181	H	0.269225	0.239886	0.599186
182	H	0.299421	0.209703	0.599771
183	H	0.299369	0.20975	0.40772
184	H	0.211545	0.297525	0.599559
185	H	0.269171	0.239932	0.408159
186	H	0.241742	0.267342	0.599119
187	C	0.208663	0.410009	0.670193
188	C	0.217965	0.428612	0.629657
189	C	0.236109	0.464914	0.629912
190	C	0.246018	0.484747	0.670283
191	C	0.236076	0.464858	0.377269
192	C	0.217932	0.428555	0.377441
193	H	0.2417	0.476118	0.408092
194	H	0.211522	0.415738	0.407508
195	C	0.264899	0.022532	0.336995
196	C	0.274836	0.04242	0.630006
197	C	0.292982	0.078724	0.629838
198	C	0.302255	0.09727	0.337086
199	C	0.292956	0.078667	0.377622
200	C	0.27481	0.042363	0.377367
201	H	0.269209	0.03116	0.599186
202	H	0.29939	0.091541	0.599771
203	H	0.299343	0.091442	0.40772
204	H	0.211579	0.415836	0.599559
205	H	0.269163	0.03106	0.408159
206	H	0.24176	0.476219	0.599119
207	C	0.486567	0.244192	0.336995
208	C	0.466678	0.234247	0.630006
209	C	0.430374	0.216094	0.629838
210	C	0.411829	0.206819	0.337086
211	C	0.430432	0.216124	0.377622
212	C	0.466735	0.234278	0.377367
213	H	0.477939	0.239878	0.599186
214	H	0.417557	0.209686	0.599771
215	H	0.417657	0.209738	0.40772
216	H	0.478037	0.239932	0.408159
217	C	0.190411	0.373519	0.670152
218	C	0.208417	0.355106	0.670156
219	C	0.190396	0.318688	0.670152
220	H	0.234838	0.368312	0.670169
221	C	0.375342	0.188579	0.670458
222	C	0.356926	0.152159	0.670458
223	C	0.320506	0.133759	0.670458
224	C	0.3025	0.152172	0.670458
225	C	0.320522	0.188592	0.670458
226	C	0.356942	0.2066	0.670458
227	H	0.27608	0.138968	0.670441
228	H	0.370157	0.23302	0.670441
229	H	0.370133	0.138944	0.670441
230	C	0.208633	0.300438	0.003528
231	C	0.217933	0.291138	0.962989
232	C	0.23609	0.272991	0.963247
233	C	0.24601	0.263081	0.003615
234	C	0.236066	0.273025	0.710605
235	C	0.217908	0.291169	0.710776
236	H	0.241701	0.267401	0.741424
237	H	0.211503	0.297582	0.740843
238	C	0.264909	0.244198	0.67033
239	C	0.274856	0.234259	0.963341
240	C	0.293013	0.216112	0.96317
241	C	0.302286	0.206842	0.670418
242	C	0.292983	0.216139	0.710957
243	C	0.274826	0.234285	0.710699
244	H	0.269225	0.239886	0.932518
245	H	0.299421	0.209703	0.933103
246	H	0.299369	0.20975	0.741055
247	H	0.211545	0.297525	0.932891
248	H	0.269171	0.239932	0.741491
249	H	0.241742	0.267342	0.932451
250	C	0.208663	0.410009	0.003528
251	C	0.217965	0.428612	0.962992
252	C	0.236109	0.464914	0.963247
253	C	0.246018	0.484747	0.003615
254	C	0.236076	0.464858	0.710605
255	C	0.217932	0.428555	0.710773
256	H	0.2417	0.476118	0.741424
257	H	0.211522	0.415738	0.740843
258	C	0.264899	0.022532	0.67033
259	C	0.274836	0.04242	0.963341
260	C	0.292982	0.078724	0.963173
261	C	0.302255	0.09727	0.670418
262	C	0.292956	0.078667	0.710954
263	C	0.27481	0.042363	0.710699
264	H	0.269209	0.03116	0.932522
265	H	0.29939	0.091541	0.933103
266	H	0.299343	0.091442	0.741055
267	H	0.211579	0.415836	0.932891
268	H	0.269163	0.03106	0.741491
269	H	0.24176	0.476219	0.932455
270	C	0.486567	0.244192	0.67033
271	C	0.466678	0.234247	0.963341
272	C	0.430374	0.216094	0.963173
273	C	0.411829	0.206819	0.670418
274	C	0.430432	0.216124	0.710954
275	C	0.466735	0.234278	0.710699
276	H	0.477939	0.239878	0.932522
277	H	0.417557	0.209686	0.933103
278	H	0.417657	0.209738	0.741055
279	H	0.478037	0.239932	0.741491
280	C	0.190411	0.873521	0.003488
281	C	0.208417	0.855106	0.003488
282	C	0.190396	0.818688	0.003488
283	H	0.234839	0.868312	0.003501
284	C	0.375342	0.68858	0.003791
285	C	0.356927	0.652159	0.00379
286	C	0.320507	0.63376	0.003791
287	C	0.302501	0.652172	0.00379
288	C	0.320523	0.688593	0.003791
289	C	0.356943	0.706601	0.00379
290	H	0.276081	0.638968	0.003776
291	H	0.370158	0.733021	0.003776
292	H	0.370133	0.638945	0.003775
293	C	0.208633	0.800437	0.336861
294	C	0.217933	0.791138	0.296323
295	C	0.23609	0.772991	0.296578
296	C	0.246011	0.763084	0.336948
297	C	0.236066	0.773025	0.043938
298	C	0.21791	0.791172	0.044107
299	H	0.241701	0.767401	0.074759
300	H	0.211503	0.797582	0.074175
301	C	0.264909	0.744197	0.003662
302	C	0.274857	0.734259	0.296673
303	C	0.293013	0.716111	0.296504
304	C	0.302287	0.706843	0.003752
305	C	0.292984	0.71614	0.044289
306	C	0.274826	0.734284	0.044033
307	H	0.269226	0.739888	0.265853
308	H	0.299422	0.709704	0.266436
309	H	0.29937	0.70975	0.074387
310	H	0.211545	0.797525	0.266224
311	H	0.269171	0.739931	0.074826
312	H	0.241742	0.767342	0.265786
313	C	0.208664	0.910009	0.336861
314	C	0.217966	0.928612	0.296324
315	C	0.236112	0.964917	0.29658
316	C	0.246018	0.984747	0.336948
317	C	0.236077	0.96486	0.043937
318	C	0.217933	0.928555	0.044106
319	H	0.241701	0.976118	0.074757
320	H	0.211522	0.915738	0.074175
321	C	0.264899	0.522531	0.003662
322	C	0.274837	0.542421	0.296674
323	C	0.292983	0.578725	0.296505
324	C	0.302254	0.597269	0.003752
325	C	0.292956	0.578669	0.044288
326	C	0.274811	0.542364	0.044032
327	H	0.26921	0.53116	0.265854
328	H	0.29939	0.59154	0.266437
329	H	0.299344	0.591442	0.074386
330	H	0.211578	0.915836	0.266225
331	H	0.269164	0.53106	0.074824
332	H	0.24176	0.976218	0.265787
333	C	0.486567	0.744192	0.003662
334	C	0.46668	0.734248	0.296674
335	C	0.430375	0.716093	0.296505
336	C	0.41183	0.70682	0.003752
337	C	0.430432	0.716124	0.044288
338	C	0.466737	0.734279	0.044032
339	H	0.477938	0.739877	0.265854
340	H	0.417558	0.709686	0.266437
341	H	0.417658	0.70974	0.074386
342	H	0.478038	0.739931	0.074825
343	C	0.190411	0.873521	0.336821
344	C	0.208417	0.855106	0.336821
345	C	0.190396	0.818688	0.336821
346	H	0.234839	0.868312	0.336837
347	C	0.375342	0.68858	0.337126
348	C	0.356927	0.652159	0.337123
349	C	0.320507	0.63376	0.337126
350	C	0.302501	0.652172	0.337123
351	C	0.320523	0.688593	0.337126
352	C	0.356943	0.706601	0.337123
353	H	0.276081	0.638968	0.337109
354	H	0.370158	0.733021	0.337109
355	H	0.370133	0.638945	0.337109
356	C	0.208633	0.800437	0.670193
357	C	0.217933	0.791138	0.629657
358	C	0.23609	0.772991	0.629912
359	C	0.246011	0.763084	0.670283
360	C	0.236066	0.773025	0.377273
361	C	0.21791	0.791172	0.377441
362	H	0.241701	0.767401	0.408092
363	H	0.211503	0.797582	0.407508
364	C	0.264909	0.744197	0.336995
365	C	0.274857	0.734259	0.630006
366	C	0.293013	0.716111	0.629838
367	C	0.302287	0.706843	0.337086
368	C	0.292984	0.71614	0.377622
369	C	0.274826	0.734284	0.377367
370	H	0.269226	0.739888	0.599186
371	H	0.299422	0.709704	0.599771
372	H	0.29937	0.70975	0.40772
373	H	0.211545	0.797525	0.599559
374	H	0.269171	0.739931	0.408159
375	H	0.241742	0.767342	0.599119
376	C	0.208664	0.910009	0.670193
377	C	0.217966	0.928612	0.629657
378	C	0.236112	0.964917	0.629912
379	C	0.246018	0.984747	0.670283
380	C	0.236077	0.96486	0.377269
381	C	0.217933	0.928555	0.377441
382	H	0.241701	0.976118	0.408092
383	H	0.211522	0.915738	0.407508
384	C	0.264899	0.522531	0.336995
385	C	0.274837	0.542421	0.630006
386	C	0.292983	0.578725	0.629838
387	C	0.302254	0.597269	0.337086
388	C	0.292956	0.578669	0.377622
389	C	0.274811	0.542364	0.377367
390	H	0.26921	0.53116	0.599186
391	H	0.29939	0.59154	0.599771
392	H	0.299344	0.591442	0.40772
393	H	0.211578	0.915836	0.599559
394	H	0.269164	0.53106	0.408159
395	H	0.24176	0.976218	0.599119
396	C	0.486567	0.744192	0.336995
397	C	0.46668	0.734248	0.630006
398	C	0.430375	0.716093	0.629838
399	C	0.41183	0.70682	0.337086
400	C	0.430432	0.716124	0.377622
401	C	0.466737	0.734279	0.377367
402	H	0.477938	0.739877	0.599186
403	H	0.417558	0.709686	0.599771
404	H	0.417658	0.70974	0.40772
405	H	0.478038	0.739931	0.408159
406	C	0.190411	0.873521	0.670152
407	C	0.208417	0.855106	0.670156
408	C	0.190396	0.818688	0.670152
409	H	0.234839	0.868312	0.670169
410	C	0.375342	0.68858	0.670458
411	C	0.356927	0.652159	0.670458
412	C	0.320507	0.63376	0.670458
413	C	0.302501	0.652172	0.670458
414	C	0.320523	0.688593	0.670458
415	C	0.356943	0.706601	0.670458
416	H	0.276081	0.638968	0.670441
417	H	0.370158	0.733021	0.670441
418	H	0.370133	0.638945	0.670441
419	C	0.208633	0.800437	0.003528
420	C	0.217933	0.791138	0.962989
421	C	0.23609	0.772991	0.963247
422	C	0.246011	0.763084	0.003615
423	C	0.236066	0.773025	0.710605
424	C	0.21791	0.791172	0.710776
425	H	0.241701	0.767401	0.741424
426	H	0.211503	0.797582	0.740843
427	C	0.264909	0.744197	0.67033
428	C	0.274857	0.734259	0.963341
429	C	0.293013	0.716111	0.96317
430	C	0.302287	0.706843	0.670418
431	C	0.292984	0.71614	0.710957
432	C	0.274826	0.734284	0.710699
433	H	0.269226	0.739888	0.932518
434	H	0.299422	0.709704	0.933103
435	H	0.29937	0.70975	0.741055
436	H	0.211545	0.797525	0.932891
437	H	0.269171	0.739931	0.741491
438	H	0.241742	0.767342	0.932451
439	C	0.208664	0.910009	0.003528
440	C	0.217966	0.928612	0.962992
441	C	0.236112	0.964917	0.963247
442	C	0.246018	0.984747	0.003615
443	C	0.236077	0.96486	0.710605
444	C	0.217933	0.928555	0.710773
445	H	0.241701	0.976118	0.741424
446	H	0.211522	0.915738	0.740843
447	C	0.264899	0.522531	0.67033
448	C	0.274837	0.542421	0.963341
449	C	0.292983	0.578725	0.963173
450	C	0.302254	0.597269	0.670418
451	C	0.292956	0.578669	0.710954
452	C	0.274811	0.542364	0.710699
453	H	0.26921	0.53116	0.932522
454	H	0.29939	0.59154	0.933103
455	H	0.299344	0.591442	0.741055
456	H	0.211578	0.915836	0.932891
457	H	0.269164	0.53106	0.741491
458	H	0.24176	0.976218	0.932455
459	C	0.486567	0.744192	0.67033
460	C	0.46668	0.734248	0.963341
461	C	0.430375	0.716093	0.963173
462	C	0.41183	0.70682	0.670418
463	C	0.430432	0.716124	0.710954
464	C	0.466737	0.734279	0.710699
465	H	0.477938	0.739877	0.932522
466	H	0.417558	0.709686	0.933103
467	H	0.417658	0.70974	0.741055
468	H	0.478038	0.739931	0.741491
469	C	0.635577	0.318698	0.003488
470	C	0.65399	0.355119	0.003488
471	C	0.69041	0.373519	0.003488
472	C	0.708417	0.355106	0.003488
473	C	0.690396	0.318688	0.003488
474	C	0.653977	0.30068	0.003488
475	H	0.734839	0.368312	0.003501
476	H	0.640763	0.274259	0.003501
477	H	0.640786	0.368333	0.003505
478	C	0.875341	0.188579	0.003791
479	C	0.856927	0.152159	0.00379
480	C	0.820507	0.133759	0.003791
481	C	0.802501	0.152172	0.00379
482	C	0.820523	0.188592	0.003791
483	C	0.856943	0.2066	0.00379
484	H	0.77608	0.138968	0.003776
485	H	0.870158	0.23302	0.003776
486	H	0.870131	0.138944	0.003775
487	C	0.708633	0.300438	0.336861
488	C	0.717934	0.291138	0.296323
489	C	0.736089	0.272991	0.296578
490	C	0.746011	0.263081	0.336948
491	C	0.736066	0.273025	0.043938
492	C	0.717909	0.291169	0.044107
493	H	0.741702	0.267401	0.074759
494	H	0.711504	0.297582	0.074175
495	C	0.764909	0.244198	0.003662
496	C	0.774857	0.234259	0.296673
497	C	0.793012	0.216112	0.296504
498	C	0.802285	0.206842	0.003752
499	C	0.792983	0.216139	0.044289
500	C	0.774828	0.234285	0.044033
501	H	0.769227	0.239886	0.265853
502	H	0.799421	0.209703	0.266436
503	H	0.799369	0.20975	0.074387
504	H	0.711545	0.297525	0.266224
505	H	0.769172	0.239932	0.074826
506	H	0.741742	0.267342	0.265786
507	C	0.708664	0.410009	0.336861
508	C	0.717966	0.428612	0.296324
509	C	0.73611	0.464914	0.29658
510	C	0.746018	0.484747	0.336948
511	C	0.736075	0.464858	0.043937
512	C	0.717933	0.428555	0.044106
513	H	0.741701	0.476118	0.074757
514	H	0.711522	0.415738	0.074175
515	C	0.7649	0.022532	0.003662
516	C	0.774838	0.04242	0.296674
517	C	0.792983	0.078724	0.296505
518	C	0.802254	0.09727	0.003752
519	C	0.792955	0.078667	0.044288
520	C	0.774811	0.042363	0.044032
521	H	0.76921	0.03116	0.265854
522	H	0.799391	0.091541	0.266437
523	H	0.799344	0.091442	0.074386
524	H	0.711578	0.415836	0.266225
525	H	0.769164	0.03106	0.074824
526	H	0.74176	0.476219	0.265787
527	C	0.59909	0.300458	0.336861
528	C	0.580486	0.291156	0.296324
529	C	0.544182	0.273002	0.296579
530	C	0.524351	0.263084	0.336948
531	C	0.54424	0.273027	0.043938
532	C	0.580542	0.29118	0.044106
533	H	0.532981	0.267393	0.074758
534	H	0.593362	0.297587	0.074175
535	C	0.986568	0.244192	0.003662
536	C	0.966679	0.234247	0.296674
537	C	0.930376	0.216094	0.296505
538	C	0.91183	0.206819	0.003752
539	C	0.930433	0.216124	0.044288
540	C	0.966736	0.234278	0.044032
541	H	0.977938	0.239878	0.265854
542	H	0.917558	0.209686	0.266437
543	H	0.917658	0.209738	0.074386
544	H	0.593262	0.297543	0.266225
545	H	0.978039	0.239932	0.074825
546	H	0.53288	0.267352	0.265787
547	C	0.635577	0.318698	0.336821
548	C	0.65399	0.355119	0.336821
549	C	0.69041	0.373519	0.336821
550	C	0.708417	0.355106	0.336821
551	C	0.690396	0.318688	0.336821
552	C	0.653977	0.30068	0.336821
553	H	0.734839	0.368312	0.336837
554	H	0.640763	0.274259	0.336834
555	H	0.640786	0.368333	0.336837
556	C	0.875341	0.188579	0.337126
557	C	0.856927	0.152159	0.337123
558	C	0.820507	0.133759	0.337126
559	C	0.802501	0.152172	0.337123
560	C	0.820523	0.188592	0.337126
561	C	0.856943	0.2066	0.337123
562	H	0.77608	0.138968	0.337109
563	H	0.870158	0.23302	0.337109
564	H	0.870131	0.138944	0.337109
565	C	0.708633	0.300438	0.670193
566	C	0.717934	0.291138	0.629657
567	C	0.736089	0.272991	0.629912
568	C	0.746011	0.263081	0.670283
569	C	0.736066	0.273025	0.377273
570	C	0.717909	0.291169	0.377441
571	H	0.741702	0.267401	0.408092
572	H	0.711504	0.297582	0.407508
573	C	0.764909	0.244198	0.336995
574	C	0.774857	0.234259	0.630006
575	C	0.793012	0.216112	0.629838
576	C	0.802285	0.206842	0.337086
577	C	0.792983	0.216139	0.377622
578	C	0.774828	0.234285	0.377367
579	H	0.769227	0.239886	0.599186
580	H	0.799421	0.209703	0.599771
581	H	0.799369	0.20975	0.40772
582	H	0.711545	0.297525	0.599559
583	H	0.769172	0.239932	0.408159
584	H	0.741742	0.267342	0.599119
585	C	0.708664	0.410009	0.670193
586	C	0.717966	0.428612	0.629657
587	C	0.73611	0.464914	0.629912
588	C	0.746018	0.484747	0.670283
589	C	0.736075	0.464858	0.377269
590	C	0.717933	0.428555	0.377441
591	H	0.741701	0.476118	0.408092
592	H	0.711522	0.415738	0.407508
593	C	0.7649	0.022532	0.336995
594	C	0.774838	0.04242	0.630006
595	C	0.792983	0.078724	0.629838
596	C	0.802254	0.09727	0.337086
597	C	0.792955	0.078667	0.377622
598	C	0.774811	0.042363	0.377367
599	H	0.76921	0.03116	0.599186
600	H	0.799391	0.091541	0.599771
601	H	0.799344	0.091442	0.40772
602	H	0.711578	0.415836	0.599559
603	H	0.769164	0.03106	0.408159
604	H	0.74176	0.476219	0.599119
605	C	0.59909	0.300458	0.670193
606	C	0.580486	0.291156	0.629657
607	C	0.544182	0.273002	0.629912
608	C	0.524351	0.263084	0.670283
609	C	0.54424	0.273027	0.377273
610	C	0.580542	0.29118	0.377441
611	H	0.532981	0.267393	0.408092
612	H	0.593362	0.297587	0.407508
613	C	0.986568	0.244192	0.336995
614	C	0.966679	0.234247	0.630006
615	C	0.930376	0.216094	0.629838
616	C	0.91183	0.206819	0.337086
617	C	0.930433	0.216124	0.377622
618	C	0.966736	0.234278	0.377367
619	H	0.977938	0.239878	0.599186
620	H	0.917558	0.209686	0.599771
621	H	0.917658	0.209738	0.40772
622	H	0.593262	0.297543	0.599559
623	H	0.978039	0.239932	0.408159
624	H	0.53288	0.267352	0.599119
625	C	0.635577	0.318698	0.670152
626	C	0.65399	0.355119	0.670156
627	C	0.69041	0.373519	0.670152
628	C	0.708417	0.355106	0.670156
629	C	0.690396	0.318688	0.670152
630	C	0.653977	0.30068	0.670156
631	H	0.734839	0.368312	0.670169
632	H	0.640763	0.274259	0.670169
633	H	0.640786	0.368333	0.670169
634	C	0.875341	0.188579	0.670458
635	C	0.856927	0.152159	0.670458
636	C	0.820507	0.133759	0.670458
637	C	0.802501	0.152172	0.670458
638	C	0.820523	0.188592	0.670458
639	C	0.856943	0.2066	0.670458
640	H	0.77608	0.138968	0.670441
641	H	0.870158	0.23302	0.670441
642	H	0.870131	0.138944	0.670441
643	C	0.708633	0.300438	0.003528
644	C	0.717934	0.291138	0.962989
645	C	0.736089	0.272991	0.963247
646	C	0.746011	0.263081	0.003615
647	C	0.736066	0.273025	0.710605
648	C	0.717909	0.291169	0.710776
649	H	0.741702	0.267401	0.741424
650	H	0.711504	0.297582	0.740843
651	C	0.764909	0.244198	0.67033
652	C	0.774857	0.234259	0.963341
653	C	0.793012	0.216112	0.96317
654	C	0.802285	0.206842	0.670418
655	C	0.792983	0.216139	0.710957
656	C	0.774828	0.234285	0.710699
657	H	0.769227	0.239886	0.932518
658	H	0.799421	0.209703	0.933103
659	H	0.799369	0.20975	0.741055
660	H	0.711545	0.297525	0.932891
661	H	0.769172	0.239932	0.741491
662	H	0.741742	0.267342	0.932451
663	C	0.708664	0.410009	0.003528
664	C	0.717966	0.428612	0.962992
665	C	0.73611	0.464914	0.963247
666	C	0.746018	0.484747	0.003615
667	C	0.736075	0.464858	0.710605
668	C	0.717933	0.428555	0.710773
669	H	0.741701	0.476118	0.741424
670	H	0.711522	0.415738	0.740843
671	C	0.7649	0.022532	0.67033
672	C	0.774838	0.04242	0.963341
673	C	0.792983	0.078724	0.963173
674	C	0.802254	0.09727	0.670418
675	C	0.792955	0.078667	0.710954
676	C	0.774811	0.042363	0.710699
677	H	0.76921	0.03116	0.932522
678	H	0.799391	0.091541	0.933103
679	H	0.799344	0.091442	0.741055
680	H	0.711578	0.415836	0.932891
681	H	0.769164	0.03106	0.741491
682	H	0.74176	0.476219	0.932455
683	C	0.59909	0.300458	0.003528
684	C	0.580486	0.291156	0.962992
685	C	0.544182	0.273002	0.963247
686	C	0.524351	0.263084	0.003615
687	C	0.54424	0.273027	0.710605
688	C	0.580542	0.29118	0.710773
689	H	0.532981	0.267393	0.741424
690	H	0.593362	0.297587	0.740843
691	C	0.986568	0.244192	0.67033
692	C	0.966679	0.234247	0.963341
693	C	0.930376	0.216094	0.963173
694	C	0.91183	0.206819	0.670418
695	C	0.930433	0.216124	0.710954
696	C	0.966736	0.234278	0.710699
697	H	0.977938	0.239878	0.932522
698	H	0.917558	0.209686	0.933103
699	H	0.917658	0.209738	0.741055
700	H	0.593262	0.297543	0.932891
701	H	0.978039	0.239932	0.741491
702	H	0.53288	0.267352	0.932455
703	C	0.635579	0.818701	0.003488
704	C	0.653991	0.855119	0.003488
705	C	0.690413	0.873521	0.003488
706	C	0.708418	0.855106	0.003488
707	C	0.690397	0.818688	0.003488
708	C	0.653978	0.80068	0.003488
709	H	0.73484	0.868312	0.003501
710	H	0.640764	0.774259	0.003501
711	H	0.640787	0.868335	0.003505
712	C	0.875342	0.68858	0.003791
713	C	0.856929	0.652159	0.00379
714	C	0.820506	0.63376	0.003791
715	C	0.802502	0.652172	0.00379
716	C	0.820525	0.688593	0.003791
717	C	0.856943	0.706601	0.00379
718	H	0.776081	0.638968	0.003776
719	H	0.870158	0.733021	0.003776
720	H	0.870133	0.638945	0.003775
721	C	0.708634	0.800437	0.336861
722	C	0.717935	0.791138	0.296323
723	C	0.73609	0.772991	0.296578
724	C	0.746011	0.763084	0.336948
725	C	0.736067	0.773025	0.043938
726	C	0.717909	0.791172	0.044107
727	H	0.741701	0.767401	0.074759
728	H	0.711503	0.797582	0.074175
729	C	0.76491	0.744197	0.003662
730	C	0.774858	0.734259	0.296673
731	C	0.793013	0.716111	0.296504
732	C	0.802287	0.706843	0.003752
733	C	0.792985	0.71614	0.044289
734	C	0.774826	0.734284	0.044033
735	H	0.769226	0.739888	0.265853
736	H	0.799423	0.709704	0.266436
737	H	0.79937	0.70975	0.074387
738	H	0.711546	0.797525	0.266224
739	H	0.76917	0.739931	0.074826
740	H	0.741743	0.767342	0.265786
741	C	0.708663	0.910009	0.336861
742	C	0.717967	0.928612	0.296324
743	C	0.736111	0.964917	0.29658
744	C	0.746019	0.984747	0.336948
745	C	0.736078	0.96486	0.043937
746	C	0.717932	0.928555	0.044106
747	H	0.7417	0.976118	0.074757
748	H	0.711523	0.915738	0.074175
749	C	0.764899	0.522531	0.003662
750	C	0.774837	0.542421	0.296674
751	C	0.792983	0.578725	0.296505
752	C	0.802255	0.597269	0.003752
753	C	0.792956	0.578669	0.044288
754	C	0.774811	0.542364	0.044032
755	H	0.769211	0.53116	0.265854
756	H	0.79939	0.59154	0.266437
757	H	0.799345	0.591442	0.074386
758	H	0.711579	0.915836	0.266225
759	H	0.769165	0.53106	0.074824
760	H	0.741761	0.976218	0.265787
761	C	0.599089	0.800458	0.336861
762	C	0.580487	0.791156	0.296324
763	C	0.544184	0.773004	0.296579
764	C	0.524353	0.763086	0.336948
765	C	0.54424	0.773027	0.043938
766	C	0.580545	0.791182	0.044106
767	H	0.532981	0.767393	0.074758
768	H	0.593361	0.797587	0.074175
769	C	0.986567	0.744192	0.003662
770	C	0.96668	0.734248	0.296674
771	C	0.930376	0.716093	0.296505
772	C	0.911832	0.70682	0.003752
773	C	0.930432	0.716124	0.044288
774	C	0.966736	0.734279	0.044032
775	H	0.977939	0.739877	0.265854
776	H	0.917559	0.709686	0.266437
777	H	0.917658	0.70974	0.074386
778	H	0.593263	0.797546	0.266225
779	H	0.978039	0.739931	0.074825
780	H	0.53288	0.767352	0.265787
781	C	0.635579	0.818701	0.336821
782	C	0.653991	0.855119	0.336821
783	C	0.690413	0.873521	0.336821
784	C	0.708418	0.855106	0.336821
785	C	0.690397	0.818688	0.336821
786	C	0.653978	0.80068	0.336821
787	H	0.73484	0.868312	0.336837
788	H	0.640764	0.774259	0.336834
789	H	0.640787	0.868335	0.336837
790	C	0.875342	0.68858	0.337126
791	C	0.856929	0.652159	0.337123
792	C	0.820506	0.63376	0.337126
793	C	0.802502	0.652172	0.337123
794	C	0.820525	0.688593	0.337126
795	C	0.856943	0.706601	0.337123
796	H	0.776081	0.638968	0.337109
797	H	0.870158	0.733021	0.337109
798	H	0.870133	0.638945	0.337109
799	C	0.708634	0.800437	0.670193
800	C	0.717935	0.791138	0.629657
801	C	0.73609	0.772991	0.629912
802	C	0.746011	0.763084	0.670283
803	C	0.736067	0.773025	0.377273
804	C	0.717909	0.791172	0.377441
805	H	0.741701	0.767401	0.408092
806	H	0.711503	0.797582	0.407508
807	C	0.76491	0.744197	0.336995
808	C	0.774858	0.734259	0.630006
809	C	0.793013	0.716111	0.629838
810	C	0.802287	0.706843	0.337086
811	C	0.792985	0.71614	0.377622
812	C	0.774826	0.734284	0.377367
813	H	0.769226	0.739888	0.599186
814	H	0.799423	0.709704	0.599771
815	H	0.79937	0.70975	0.40772
816	H	0.711546	0.797525	0.599559
817	H	0.76917	0.739931	0.408159
818	H	0.741743	0.767342	0.599119
819	C	0.708663	0.910009	0.670193
820	C	0.717967	0.928612	0.629657
821	C	0.736111	0.964917	0.629912
822	C	0.746019	0.984747	0.670283
823	C	0.736078	0.96486	0.377269
824	C	0.717932	0.928555	0.377441
825	H	0.7417	0.976118	0.408092
826	H	0.711523	0.915738	0.407508
827	C	0.764899	0.522531	0.336995
828	C	0.774837	0.542421	0.630006
829	C	0.792983	0.578725	0.629838
830	C	0.802255	0.597269	0.337086
831	C	0.792956	0.578669	0.377622
832	C	0.774811	0.542364	0.377367
833	H	0.769211	0.53116	0.599186
834	H	0.79939	0.59154	0.599771
835	H	0.799345	0.591442	0.40772
836	H	0.711579	0.915836	0.599559
837	H	0.769165	0.53106	0.408159
838	H	0.741761	0.976218	0.599119
839	C	0.599089	0.800458	0.670193
840	C	0.580487	0.791156	0.629657
841	C	0.544184	0.773004	0.629912
842	C	0.524353	0.763086	0.670283
843	C	0.54424	0.773027	0.377273
844	C	0.580545	0.791182	0.377441
845	H	0.532981	0.767393	0.408092
846	H	0.593361	0.797587	0.407508
847	C	0.986567	0.744192	0.336995
848	C	0.96668	0.734248	0.630006
849	C	0.930376	0.716093	0.629838
850	C	0.911832	0.70682	0.337086
851	C	0.930432	0.716124	0.377622
852	C	0.966736	0.734279	0.377367
853	H	0.977939	0.739877	0.599186
854	H	0.917559	0.709686	0.599771
855	H	0.917658	0.70974	0.40772
856	H	0.593263	0.797546	0.599559
857	H	0.978039	0.739931	0.408159
858	H	0.53288	0.767352	0.599119
859	C	0.635579	0.818701	0.670152
860	C	0.653991	0.855119	0.670156
861	C	0.690413	0.873521	0.670152
862	C	0.708418	0.855106	0.670156
863	C	0.690397	0.818688	0.670152
864	C	0.653978	0.80068	0.670156
865	H	0.73484	0.868312	0.670169
866	H	0.640764	0.774259	0.670169
867	H	0.640787	0.868335	0.670169
868	C	0.875342	0.68858	0.670458
869	C	0.856929	0.652159	0.670458
870	C	0.820506	0.63376	0.670458
871	C	0.802502	0.652172	0.670458
872	C	0.820525	0.688593	0.670458
873	C	0.856943	0.706601	0.670458
874	H	0.776081	0.638968	0.670441
875	H	0.870158	0.733021	0.670441
876	H	0.870133	0.638945	0.670441
877	C	0.708634	0.800437	0.003528
878	C	0.717935	0.791138	0.962989
879	C	0.73609	0.772991	0.963247
880	C	0.746011	0.763084	0.003615
881	C	0.736067	0.773025	0.710605
882	C	0.717909	0.791172	0.710776
883	H	0.741701	0.767401	0.741424
884	H	0.711503	0.797582	0.740843
885	C	0.76491	0.744197	0.67033
886	C	0.774858	0.734259	0.963341
887	C	0.793013	0.716111	0.96317
888	C	0.802287	0.706843	0.670418
889	C	0.792985	0.71614	0.710957
890	C	0.774826	0.734284	0.710699
891	H	0.769226	0.739888	0.932518
892	H	0.799423	0.709704	0.933103
893	H	0.79937	0.70975	0.741055
894	H	0.711546	0.797525	0.932891
895	H	0.76917	0.739931	0.741491
896	H	0.741743	0.767342	0.932451
897	C	0.708663	0.910009	0.003528
898	C	0.717967	0.928612	0.962992
899	C	0.736111	0.964917	0.963247
900	C	0.746019	0.984747	0.003615
901	C	0.736078	0.96486	0.710605
902	C	0.717932	0.928555	0.710773
903	H	0.7417	0.976118	0.741424
904	H	0.711523	0.915738	0.740843
905	C	0.764899	0.522531	0.67033
906	C	0.774837	0.542421	0.963341
907	C	0.792983	0.578725	0.963173
908	C	0.802255	0.597269	0.670418
909	C	0.792956	0.578669	0.710954
910	C	0.774811	0.542364	0.710699
911	H	0.769211	0.53116	0.932522
912	H	0.79939	0.59154	0.933103
913	H	0.799345	0.591442	0.741055
914	H	0.711579	0.915836	0.932891
915	H	0.769165	0.53106	0.741491
916	H	0.741761	0.976218	0.932455
917	C	0.599089	0.800458	0.003528
918	C	0.580487	0.791156	0.962992
919	C	0.544184	0.773004	0.963247
920	C	0.524353	0.763086	0.003615
921	C	0.54424	0.773027	0.710605
922	C	0.580545	0.791182	0.710773
923	H	0.532981	0.767393	0.741424
924	H	0.593361	0.797587	0.740843
925	C	0.986567	0.744192	0.67033
926	C	0.96668	0.734248	0.963341
927	C	0.930376	0.716093	0.963173
928	C	0.911832	0.70682	0.670418
929	C	0.930432	0.716124	0.710954
930	C	0.966736	0.734279	0.710699
931	H	0.977939	0.739877	0.932522
932	H	0.917559	0.709686	0.933103
933	H	0.917658	0.70974	0.741055
934	H	0.593263	0.797546	0.932891
935	H	0.978039	0.739931	0.741491
936	H	0.53288	0.767352	0.932455
