data_C360H144N216O216_2018-02-15_10:32:36
#******************************************
#
# CIF file created by Zeo++
# Zeo++ is an open source package to
# analyze microporous materials
#
#*******************************************

_cell_length_a		43.1204   
_cell_length_b		43.1204   
_cell_length_c		30.0756   
_cell_angle_alpha		90   
_cell_angle_beta		90   
_cell_angle_gamma		120   

_symmetry_space_group_name_H-M		'P1'
_symmetry_Int_Tables_number		1
_symmetry_cell_setting		Monoclinic

loop_
_symmetry_equiv_pos_as_xyz
'+x,+y,+z'

loop_
_atom_site_label
_atom_site_type_symbol
_atom_site_fract_x
_atom_site_fract_y
_atom_site_fract_z
1	C	0.12896	0.32071	0.369858
2	N	0.153891	0.356104	0.036222
3	C	0.18959	0.367891	0.036595
4	N	0.200058	0.342963	0.036319
5	C	0.17615	0.307259	0.036637
6	N	0.140754	0.2968	0.036248
7	C	0.215103	0.404433	0.031617
8	C	0.187174	0.281742	0.031668
9	C	0.092432	0.309686	0.031419
10	O	0.160865	0.247067	0.027687
11	O	0.084063	0.335996	0.027451
12	O	0.249782	0.412802	0.027663
13	C	0.367556	0.176782	0.283395
14	N	0.342792	0.141332	0.950508
15	C	0.30705	0.129336	0.950245
16	N	0.296367	0.1541	0.950541
17	C	0.320113	0.189838	0.950099
18	N	0.355564	0.20053	0.950361
19	C	0.281737	0.092777	0.955558
20	C	0.308891	0.215179	0.955285
21	C	0.404117	0.188007	0.955256
22	O	0.335082	0.249905	0.959292
23	O	0.412606	0.161805	0.959575
24	O	0.247039	0.084273	0.959837
25	C	0.260397	0.22644	0.308254
26	N	0.282774	0.259433	0.992149
27	C	0.27279	0.2819	0.010457
28	C	0.235618	0.270152	0.012711
29	N	0.213181	0.237109	0.328943
30	C	0.223295	0.214767	0.310625
31	C	0.1967	0.182175	0.294462
32	C	0.299403	0.314176	0.027689
33	O	0.181981	0.183439	0.260365
34	O	0.17727	0.158103	0.320571
35	H	0.183942	0.155074	0.347331
36	O	0.326924	0.331197	0.006179
37	O	0.303449	0.31905	0.068316
38	H	0.286927	0.306625	0.088589
39	N	0.27365	0.205615	0.292599
40	H	0.256164	0.18093	0.28532
41	N	0.222377	0.291123	0.02789
42	H	0.239894	0.315869	0.034799
43	C	0.270545	0.033011	0.308411
44	N	0.237592	0.022438	0.992415
45	C	0.21507	0.489975	0.010636
46	C	0.226717	0.464471	0.01269
47	N	0.259708	0.475032	0.328793
48	C	0.282121	0.00748	0.310472
49	C	0.314799	0.013527	0.294503
50	C	0.182854	0.484375	0.027999
51	O	0.314407	0.492082	0.267609
52	O	0.341732	0.027566	0.318382
53	H	0.344859	0.041806	0.341237
54	O	0.165858	0.994975	0.006616
55	O	0.178058	0.483518	0.068645
56	H	0.190484	0.479346	0.088841
57	N	0.291311	0.067097	0.292738
58	H	0.31593	0.074273	0.285148
59	N	0.205731	0.430261	0.027858
60	H	0.180997	0.42305	0.034815
61	C	0.463891	0.236573	0.308089
62	N	0.474452	0.214189	0.992106
63	C	0.006917	0.224131	0.010328
64	C	0.032417	0.261278	0.012395
65	N	0.021861	0.283713	0.328503
66	C	0.489422	0.273679	0.310156
67	C	0.483374	0.300316	0.294215
68	C	0.012498	0.197497	0.027749
69	O	0.004788	0.321345	0.267276
70	O	0.469403	0.31325	0.318148
71	H	0.455191	0.302155	0.341034
72	O	0.502358	0.170215	0.005867
73	O	0.012981	0.193494	0.068422
74	H	0.016961	0.21004	0.088615
75	N	0.429806	0.22326	0.292412
76	H	0.422636	0.240709	0.284827
77	N	0.066602	0.274491	0.027647
78	H	0.073797	0.256961	0.034653
79	C	0.12896	0.32071	0.703191
80	N	0.153891	0.356104	0.369555
81	C	0.18959	0.367891	0.369928
82	N	0.200058	0.342963	0.369652
83	C	0.17615	0.307259	0.369971
84	N	0.140754	0.2968	0.369582
85	C	0.215103	0.404433	0.36495
86	C	0.187174	0.281742	0.365
87	C	0.092432	0.309686	0.364754
88	O	0.160865	0.247067	0.36102
89	O	0.084063	0.335996	0.360784
90	O	0.249782	0.412802	0.360997
91	C	0.367556	0.176782	0.616729
92	N	0.342792	0.141332	0.283839
93	C	0.30705	0.129336	0.283578
94	N	0.296367	0.1541	0.283873
95	C	0.320113	0.189838	0.283432
96	N	0.355564	0.20053	0.283695
97	C	0.281737	0.092777	0.288891
98	C	0.308891	0.215179	0.288619
99	C	0.404117	0.188007	0.28859
100	O	0.335082	0.249905	0.292624
101	O	0.412606	0.161805	0.292908
102	O	0.247039	0.084273	0.293169
103	C	0.260397	0.22644	0.641586
104	N	0.282774	0.259433	0.325481
105	C	0.27279	0.2819	0.34379
106	C	0.235618	0.270152	0.346044
107	N	0.213181	0.237109	0.662277
108	C	0.223295	0.214767	0.64396
109	C	0.1967	0.182175	0.627794
110	C	0.299403	0.314176	0.361023
111	O	0.181981	0.183439	0.593697
112	O	0.17727	0.158103	0.653905
113	H	0.183942	0.155074	0.680664
114	O	0.326924	0.331197	0.339514
115	O	0.303449	0.31905	0.401651
116	H	0.286927	0.306625	0.421923
117	N	0.27365	0.205615	0.625932
118	H	0.256164	0.18093	0.618654
119	N	0.222377	0.291123	0.361223
120	H	0.239894	0.315869	0.368132
121	C	0.270545	0.033011	0.641746
122	N	0.237592	0.022438	0.325749
123	C	0.21507	0.489975	0.34397
124	C	0.226717	0.464471	0.346024
125	N	0.259708	0.475032	0.662128
126	C	0.282121	0.00748	0.643807
127	C	0.314799	0.013527	0.627837
128	C	0.182854	0.484375	0.361333
129	O	0.314407	0.492082	0.600942
130	O	0.341732	0.027566	0.651717
131	H	0.344859	0.041806	0.67457
132	O	0.165858	0.994975	0.33995
133	O	0.178058	0.483518	0.40198
134	H	0.190484	0.479346	0.422173
135	N	0.291311	0.067097	0.626072
136	H	0.31593	0.074273	0.618481
137	N	0.205731	0.430261	0.361193
138	H	0.180997	0.42305	0.368149
139	C	0.463891	0.236573	0.641423
140	N	0.474452	0.214189	0.325439
141	C	0.006917	0.224131	0.34366
142	C	0.032417	0.261278	0.345729
143	N	0.021861	0.283713	0.661835
144	C	0.489422	0.273679	0.643491
145	C	0.483374	0.300316	0.627548
146	C	0.012498	0.197497	0.361083
147	O	0.004788	0.321345	0.600609
148	O	0.469403	0.31325	0.651481
149	H	0.455191	0.302155	0.674367
150	O	0.502358	0.170215	0.339202
151	O	0.012981	0.193494	0.401754
152	H	0.016961	0.21004	0.42195
153	N	0.429806	0.22326	0.625746
154	H	0.422636	0.240709	0.618162
155	N	0.066602	0.274491	0.36098
156	H	0.073797	0.256961	0.367986
157	C	0.12896	0.32071	0.036525
158	N	0.153891	0.356104	0.702888
159	C	0.18959	0.367891	0.703264
160	N	0.200058	0.342963	0.702988
161	C	0.17615	0.307259	0.703304
162	N	0.140754	0.2968	0.702915
163	C	0.215103	0.404433	0.698283
164	C	0.187174	0.281742	0.698333
165	C	0.092432	0.309686	0.698087
166	O	0.160865	0.247067	0.694353
167	O	0.084063	0.335996	0.694117
168	O	0.249782	0.412802	0.69433
169	C	0.367556	0.176782	0.950062
170	N	0.342792	0.141332	0.617174
171	C	0.30705	0.129336	0.616912
172	N	0.296367	0.1541	0.617208
173	C	0.320113	0.189838	0.616765
174	N	0.355564	0.20053	0.617028
175	C	0.281737	0.092777	0.622225
176	C	0.308891	0.215179	0.621952
177	C	0.404117	0.188007	0.621922
178	O	0.335082	0.249905	0.625959
179	O	0.412606	0.161805	0.626242
180	O	0.247039	0.084273	0.626504
181	C	0.260397	0.22644	0.974923
182	N	0.282774	0.259433	0.658816
183	C	0.27279	0.2819	0.677123
184	C	0.235618	0.270152	0.679378
185	N	0.213181	0.237109	0.99561
186	C	0.223295	0.214767	0.977293
187	C	0.1967	0.182175	0.961131
188	C	0.299403	0.314176	0.694356
189	O	0.181981	0.183439	0.927033
190	O	0.17727	0.158103	0.987238
191	H	0.183942	0.155074	0.013998
192	O	0.326924	0.331197	0.672847
193	O	0.303449	0.31905	0.734984
194	H	0.286927	0.306625	0.755256
195	N	0.27365	0.205615	0.959265
196	H	0.256164	0.18093	0.951987
197	N	0.222377	0.291123	0.694556
198	H	0.239894	0.315869	0.701465
199	C	0.270545	0.033011	0.975079
200	N	0.237592	0.022438	0.659082
201	C	0.21507	0.489975	0.677303
202	C	0.226717	0.464471	0.679358
203	N	0.259708	0.475032	0.995461
204	C	0.282121	0.00748	0.97714
205	C	0.314799	0.013527	0.961171
206	C	0.182854	0.484375	0.694666
207	O	0.314407	0.492082	0.934275
208	O	0.341732	0.027566	0.98505
209	H	0.344859	0.041806	0.007904
210	O	0.165858	0.994975	0.673283
211	O	0.178058	0.483518	0.735313
212	H	0.190484	0.479346	0.755509
213	N	0.291311	0.067097	0.959405
214	H	0.31593	0.074273	0.951814
215	N	0.205731	0.430261	0.694526
216	H	0.180997	0.42305	0.701482
217	C	0.463891	0.236573	0.974756
218	N	0.474452	0.214189	0.658773
219	C	0.006917	0.224131	0.676997
220	C	0.032417	0.261278	0.679062
221	N	0.021861	0.283713	0.995168
222	C	0.489422	0.273679	0.976825
223	C	0.483374	0.300316	0.960881
224	C	0.012498	0.197497	0.694416
225	O	0.004788	0.321345	0.933943
226	O	0.469403	0.31325	0.984814
227	H	0.455191	0.302155	0.007699
228	O	0.502358	0.170215	0.672535
229	O	0.012981	0.193494	0.73509
230	H	0.016961	0.21004	0.755283
231	N	0.429806	0.22326	0.959079
232	H	0.422636	0.240709	0.951495
233	N	0.066602	0.274491	0.694313
234	H	0.073797	0.256961	0.701319
235	C	0.12896	0.820711	0.369858
236	N	0.153892	0.856104	0.036222
237	C	0.189591	0.867892	0.036595
238	N	0.200058	0.842964	0.036319
239	C	0.17615	0.80726	0.036637
240	N	0.140754	0.7968	0.036248
241	C	0.215103	0.904431	0.031617
242	C	0.187175	0.781743	0.031668
243	C	0.092432	0.809686	0.031419
244	O	0.160865	0.747067	0.027687
245	O	0.084063	0.835996	0.027451
246	O	0.249782	0.912802	0.027663
247	C	0.367554	0.676782	0.283395
248	N	0.342791	0.641332	0.950508
249	C	0.30705	0.629336	0.950245
250	N	0.296367	0.6541	0.950541
251	C	0.320114	0.689839	0.950099
252	N	0.355563	0.700529	0.950361
253	C	0.281737	0.592777	0.955558
254	C	0.308891	0.715179	0.955285
255	C	0.404117	0.688007	0.955256
256	O	0.335082	0.749906	0.959292
257	O	0.412607	0.661804	0.959575
258	O	0.247039	0.584273	0.959837
259	C	0.260396	0.72644	0.308254
260	N	0.282774	0.759434	0.992149
261	C	0.27279	0.781901	0.010457
262	C	0.235618	0.770153	0.012711
263	N	0.213181	0.737108	0.328943
264	C	0.223295	0.714767	0.310625
265	C	0.1967	0.682175	0.294462
266	C	0.299403	0.814177	0.027689
267	O	0.181981	0.683439	0.260365
268	O	0.17727	0.658104	0.320571
269	H	0.183942	0.655075	0.347331
270	O	0.326924	0.831197	0.006179
271	O	0.303449	0.819051	0.068316
272	H	0.286927	0.806625	0.088589
273	N	0.27365	0.705617	0.292599
274	H	0.256164	0.680932	0.28532
275	N	0.222377	0.791123	0.02789
276	H	0.239894	0.815869	0.034799
277	C	0.270544	0.53301	0.308411
278	N	0.237592	0.522438	0.992415
279	C	0.215068	0.989973	0.010636
280	C	0.226716	0.964471	0.01269
281	N	0.259708	0.975033	0.328793
282	C	0.28212	0.50748	0.310472
283	C	0.314799	0.513529	0.294503
284	C	0.182854	0.984376	0.027999
285	O	0.314407	0.992083	0.267609
286	O	0.341732	0.527566	0.318382
287	H	0.344859	0.541807	0.341237
288	O	0.16586	0.494977	0.006616
289	O	0.178057	0.983516	0.068645
290	H	0.190483	0.979347	0.088841
291	N	0.291311	0.567097	0.292738
292	H	0.315931	0.574274	0.285148
293	N	0.205732	0.930262	0.027858
294	H	0.180997	0.92305	0.034815
295	C	0.46389	0.736573	0.308089
296	N	0.474452	0.714189	0.992106
297	C	0.006916	0.724132	0.010328
298	C	0.032417	0.761279	0.012395
299	N	0.02186	0.783714	0.328503
300	C	0.489423	0.77368	0.310156
301	C	0.483374	0.800316	0.294215
302	C	0.0125	0.697498	0.027749
303	O	0.004788	0.821346	0.267276
304	O	0.469403	0.81325	0.318148
305	H	0.455192	0.802156	0.341034
306	O	0.502358	0.670216	0.005867
307	O	0.012982	0.693494	0.068422
308	H	0.016962	0.710041	0.088615
309	N	0.429807	0.723261	0.292412
310	H	0.422637	0.74071	0.284827
311	N	0.066602	0.774491	0.027647
312	H	0.073797	0.756962	0.034653
313	C	0.12896	0.820711	0.703191
314	N	0.153892	0.856104	0.369555
315	C	0.189591	0.867892	0.369928
316	N	0.200058	0.842964	0.369652
317	C	0.17615	0.80726	0.369971
318	N	0.140754	0.7968	0.369582
319	C	0.215103	0.904431	0.36495
320	C	0.187175	0.781743	0.365
321	C	0.092432	0.809686	0.364754
322	O	0.160865	0.747067	0.36102
323	O	0.084063	0.835996	0.360784
324	O	0.249782	0.912802	0.360997
325	C	0.367554	0.676782	0.616729
326	N	0.342791	0.641332	0.283839
327	C	0.30705	0.629336	0.283578
328	N	0.296367	0.6541	0.283873
329	C	0.320114	0.689839	0.283432
330	N	0.355563	0.700529	0.283695
331	C	0.281737	0.592777	0.288891
332	C	0.308891	0.715179	0.288619
333	C	0.404117	0.688007	0.28859
334	O	0.335082	0.749906	0.292624
335	O	0.412607	0.661804	0.292908
336	O	0.247039	0.584273	0.293169
337	C	0.260396	0.72644	0.641586
338	N	0.282774	0.759434	0.325481
339	C	0.27279	0.781901	0.34379
340	C	0.235618	0.770153	0.346044
341	N	0.213181	0.737108	0.662277
342	C	0.223295	0.714767	0.64396
343	C	0.1967	0.682175	0.627794
344	C	0.299403	0.814177	0.361023
345	O	0.181981	0.683439	0.593697
346	O	0.17727	0.658104	0.653905
347	H	0.183942	0.655075	0.680664
348	O	0.326924	0.831197	0.339514
349	O	0.303449	0.819051	0.401651
350	H	0.286927	0.806625	0.421923
351	N	0.27365	0.705617	0.625932
352	H	0.256164	0.680932	0.618654
353	N	0.222377	0.791123	0.361223
354	H	0.239894	0.815869	0.368132
355	C	0.270544	0.53301	0.641746
356	N	0.237592	0.522438	0.325749
357	C	0.215068	0.989973	0.34397
358	C	0.226716	0.964471	0.346024
359	N	0.259708	0.975033	0.662128
360	C	0.28212	0.50748	0.643807
361	C	0.314799	0.513529	0.627837
362	C	0.182854	0.984376	0.361333
363	O	0.314407	0.992083	0.600942
364	O	0.341732	0.527566	0.651717
365	H	0.344859	0.541807	0.67457
366	O	0.16586	0.494977	0.33995
367	O	0.178057	0.983516	0.40198
368	H	0.190483	0.979347	0.422173
369	N	0.291311	0.567097	0.626072
370	H	0.315931	0.574274	0.618481
371	N	0.205732	0.930262	0.361193
372	H	0.180997	0.92305	0.368149
373	C	0.46389	0.736573	0.641423
374	N	0.474452	0.714189	0.325439
375	C	0.006916	0.724132	0.34366
376	C	0.032417	0.761279	0.345729
377	N	0.02186	0.783714	0.661835
378	C	0.489423	0.77368	0.643491
379	C	0.483374	0.800316	0.627548
380	C	0.0125	0.697498	0.361083
381	O	0.004788	0.821346	0.600609
382	O	0.469403	0.81325	0.651481
383	H	0.455192	0.802156	0.674367
384	O	0.502358	0.670216	0.339202
385	O	0.012982	0.693494	0.401754
386	H	0.016962	0.710041	0.42195
387	N	0.429807	0.723261	0.625746
388	H	0.422637	0.74071	0.618162
389	N	0.066602	0.774491	0.36098
390	H	0.073797	0.756962	0.367986
391	C	0.12896	0.820711	0.036525
392	N	0.153892	0.856104	0.702888
393	C	0.189591	0.867892	0.703264
394	N	0.200058	0.842964	0.702988
395	C	0.17615	0.80726	0.703304
396	N	0.140754	0.7968	0.702915
397	C	0.215103	0.904431	0.698283
398	C	0.187175	0.781743	0.698333
399	C	0.092432	0.809686	0.698087
400	O	0.160865	0.747067	0.694353
401	O	0.084063	0.835996	0.694117
402	O	0.249782	0.912802	0.69433
403	C	0.367554	0.676782	0.950062
404	N	0.342791	0.641332	0.617174
405	C	0.30705	0.629336	0.616912
406	N	0.296367	0.6541	0.617208
407	C	0.320114	0.689839	0.616765
408	N	0.355563	0.700529	0.617028
409	C	0.281737	0.592777	0.622225
410	C	0.308891	0.715179	0.621952
411	C	0.404117	0.688007	0.621922
412	O	0.335082	0.749906	0.625959
413	O	0.412607	0.661804	0.626242
414	O	0.247039	0.584273	0.626504
415	C	0.260396	0.72644	0.974923
416	N	0.282774	0.759434	0.658816
417	C	0.27279	0.781901	0.677123
418	C	0.235618	0.770153	0.679378
419	N	0.213181	0.737108	0.99561
420	C	0.223295	0.714767	0.977293
421	C	0.1967	0.682175	0.961131
422	C	0.299403	0.814177	0.694356
423	O	0.181981	0.683439	0.927033
424	O	0.17727	0.658104	0.987238
425	H	0.183942	0.655075	0.013998
426	O	0.326924	0.831197	0.672847
427	O	0.303449	0.819051	0.734984
428	H	0.286927	0.806625	0.755256
429	N	0.27365	0.705617	0.959265
430	H	0.256164	0.680932	0.951987
431	N	0.222377	0.791123	0.694556
432	H	0.239894	0.815869	0.701465
433	C	0.270544	0.53301	0.975079
434	N	0.237592	0.522438	0.659082
435	C	0.215068	0.989973	0.677303
436	C	0.226716	0.964471	0.679358
437	N	0.259708	0.975033	0.995461
438	C	0.28212	0.50748	0.97714
439	C	0.314799	0.513529	0.961171
440	C	0.182854	0.984376	0.694666
441	O	0.314407	0.992083	0.934275
442	O	0.341732	0.527566	0.98505
443	H	0.344859	0.541807	0.007904
444	O	0.16586	0.494977	0.673283
445	O	0.178057	0.983516	0.735313
446	H	0.190483	0.979347	0.755509
447	N	0.291311	0.567097	0.959405
448	H	0.315931	0.574274	0.951814
449	N	0.205732	0.930262	0.694526
450	H	0.180997	0.92305	0.701482
451	C	0.46389	0.736573	0.974756
452	N	0.474452	0.714189	0.658773
453	C	0.006916	0.724132	0.676997
454	C	0.032417	0.761279	0.679062
455	N	0.02186	0.783714	0.995168
456	C	0.489423	0.77368	0.976825
457	C	0.483374	0.800316	0.960881
458	C	0.0125	0.697498	0.694416
459	O	0.004788	0.821346	0.933943
460	O	0.469403	0.81325	0.984814
461	H	0.455192	0.802156	0.007699
462	O	0.502358	0.670216	0.672535
463	O	0.012982	0.693494	0.73509
464	H	0.016962	0.710041	0.755283
465	N	0.429807	0.723261	0.959079
466	H	0.422637	0.74071	0.951495
467	N	0.066602	0.774491	0.694313
468	H	0.073797	0.756962	0.701319
469	C	0.628959	0.32071	0.369858
470	N	0.653891	0.356104	0.036222
471	C	0.68959	0.367891	0.036595
472	N	0.700057	0.342963	0.036319
473	C	0.67615	0.307259	0.036637
474	N	0.640754	0.2968	0.036248
475	C	0.715104	0.404433	0.031617
476	C	0.687174	0.281742	0.031668
477	C	0.592432	0.309686	0.031419
478	O	0.660866	0.247067	0.027687
479	O	0.584063	0.335996	0.027451
480	O	0.749782	0.412802	0.027663
481	C	0.867556	0.176782	0.283395
482	N	0.842792	0.141332	0.950508
483	C	0.80705	0.129336	0.950245
484	N	0.796369	0.1541	0.950541
485	C	0.820114	0.189838	0.950099
486	N	0.855564	0.20053	0.950361
487	C	0.781739	0.092777	0.955558
488	C	0.808891	0.215179	0.955285
489	C	0.904119	0.188007	0.955256
490	O	0.835083	0.249905	0.959292
491	O	0.912608	0.161805	0.959575
492	O	0.747039	0.084273	0.959837
493	C	0.760396	0.22644	0.308254
494	N	0.782774	0.259433	0.992149
495	C	0.77279	0.2819	0.010457
496	C	0.735618	0.270152	0.012711
497	N	0.713182	0.237109	0.328943
498	C	0.723296	0.214767	0.310625
499	C	0.696701	0.182175	0.294462
500	C	0.799404	0.314176	0.027689
501	O	0.681981	0.183439	0.260365
502	O	0.67727	0.158103	0.320571
503	H	0.683942	0.155074	0.347331
504	O	0.826923	0.331197	0.006179
505	O	0.80345	0.31905	0.068316
506	H	0.786929	0.306625	0.088589
507	N	0.77365	0.205615	0.292599
508	H	0.756164	0.18093	0.28532
509	N	0.722377	0.291123	0.02789
510	H	0.739896	0.315869	0.034799
511	C	0.770545	0.033011	0.308411
512	N	0.737592	0.022438	0.992415
513	C	0.715071	0.489975	0.010636
514	C	0.726716	0.464471	0.01269
515	N	0.759708	0.475032	0.328793
516	C	0.782121	0.00748	0.310472
517	C	0.814799	0.013527	0.294503
518	C	0.682854	0.484375	0.027999
519	O	0.814408	0.492082	0.267609
520	O	0.841732	0.027566	0.318382
521	H	0.844859	0.041806	0.341237
522	O	0.665859	0.994975	0.006616
523	O	0.678059	0.483518	0.068645
524	H	0.690483	0.479346	0.088841
525	N	0.791313	0.067097	0.292738
526	H	0.81593	0.074273	0.285148
527	N	0.705731	0.430261	0.027858
528	H	0.680999	0.42305	0.034815
529	C	0.963891	0.236573	0.308089
530	N	0.974454	0.214189	0.992106
531	C	0.506918	0.224131	0.010328
532	C	0.532416	0.261278	0.012395
533	N	0.521862	0.283713	0.328503
534	C	0.989424	0.273679	0.310156
535	C	0.983374	0.300316	0.294215
536	C	0.512499	0.197497	0.027749
537	O	0.504788	0.321345	0.267276
538	O	0.969405	0.31325	0.318148
539	H	0.955191	0.302155	0.341034
540	O	0.002357	0.170215	0.005867
541	O	0.512982	0.193494	0.068422
542	H	0.516962	0.21004	0.088615
543	N	0.929806	0.22326	0.292412
544	H	0.922638	0.240709	0.284827
545	N	0.566604	0.274491	0.027647
546	H	0.573796	0.256961	0.034653
547	C	0.628959	0.32071	0.703191
548	N	0.653891	0.356104	0.369555
549	C	0.68959	0.367891	0.369928
550	N	0.700057	0.342963	0.369652
551	C	0.67615	0.307259	0.369971
552	N	0.640754	0.2968	0.369582
553	C	0.715104	0.404433	0.36495
554	C	0.687174	0.281742	0.365
555	C	0.592432	0.309686	0.364754
556	O	0.660866	0.247067	0.36102
557	O	0.584063	0.335996	0.360784
558	O	0.749782	0.412802	0.360997
559	C	0.867556	0.176782	0.616729
560	N	0.842792	0.141332	0.283839
561	C	0.80705	0.129336	0.283578
562	N	0.796369	0.1541	0.283873
563	C	0.820114	0.189838	0.283432
564	N	0.855564	0.20053	0.283695
565	C	0.781739	0.092777	0.288891
566	C	0.808891	0.215179	0.288619
567	C	0.904119	0.188007	0.28859
568	O	0.835083	0.249905	0.292624
569	O	0.912608	0.161805	0.292908
570	O	0.747039	0.084273	0.293169
571	C	0.760396	0.22644	0.641586
572	N	0.782774	0.259433	0.325481
573	C	0.77279	0.2819	0.34379
574	C	0.735618	0.270152	0.346044
575	N	0.713182	0.237109	0.662277
576	C	0.723296	0.214767	0.64396
577	C	0.696701	0.182175	0.627794
578	C	0.799404	0.314176	0.361023
579	O	0.681981	0.183439	0.593697
580	O	0.67727	0.158103	0.653905
581	H	0.683942	0.155074	0.680664
582	O	0.826923	0.331197	0.339514
583	O	0.80345	0.31905	0.401651
584	H	0.786929	0.306625	0.421923
585	N	0.77365	0.205615	0.625932
586	H	0.756164	0.18093	0.618654
587	N	0.722377	0.291123	0.361223
588	H	0.739896	0.315869	0.368132
589	C	0.770545	0.033011	0.641746
590	N	0.737592	0.022438	0.325749
591	C	0.715071	0.489975	0.34397
592	C	0.726716	0.464471	0.346024
593	N	0.759708	0.475032	0.662128
594	C	0.782121	0.00748	0.643807
595	C	0.814799	0.013527	0.627837
596	C	0.682854	0.484375	0.361333
597	O	0.814408	0.492082	0.600942
598	O	0.841732	0.027566	0.651717
599	H	0.844859	0.041806	0.67457
600	O	0.665859	0.994975	0.33995
601	O	0.678059	0.483518	0.40198
602	H	0.690483	0.479346	0.422173
603	N	0.791313	0.067097	0.626072
604	H	0.81593	0.074273	0.618481
605	N	0.705731	0.430261	0.361193
606	H	0.680999	0.42305	0.368149
607	C	0.963891	0.236573	0.641423
608	N	0.974454	0.214189	0.325439
609	C	0.506918	0.224131	0.34366
610	C	0.532416	0.261278	0.345729
611	N	0.521862	0.283713	0.661835
612	C	0.989424	0.273679	0.643491
613	C	0.983374	0.300316	0.627548
614	C	0.512499	0.197497	0.361083
615	O	0.504788	0.321345	0.600609
616	O	0.969405	0.31325	0.651481
617	H	0.955191	0.302155	0.674367
618	O	0.002357	0.170215	0.339202
619	O	0.512982	0.193494	0.401754
620	H	0.516962	0.21004	0.42195
621	N	0.929806	0.22326	0.625746
622	H	0.922638	0.240709	0.618162
623	N	0.566604	0.274491	0.36098
624	H	0.573796	0.256961	0.367986
625	C	0.628959	0.32071	0.036525
626	N	0.653891	0.356104	0.702888
627	C	0.68959	0.367891	0.703264
628	N	0.700057	0.342963	0.702988
629	C	0.67615	0.307259	0.703304
630	N	0.640754	0.2968	0.702915
631	C	0.715104	0.404433	0.698283
632	C	0.687174	0.281742	0.698333
633	C	0.592432	0.309686	0.698087
634	O	0.660866	0.247067	0.694353
635	O	0.584063	0.335996	0.694117
636	O	0.749782	0.412802	0.69433
637	C	0.867556	0.176782	0.950062
638	N	0.842792	0.141332	0.617174
639	C	0.80705	0.129336	0.616912
640	N	0.796369	0.1541	0.617208
641	C	0.820114	0.189838	0.616765
642	N	0.855564	0.20053	0.617028
643	C	0.781739	0.092777	0.622225
644	C	0.808891	0.215179	0.621952
645	C	0.904119	0.188007	0.621922
646	O	0.835083	0.249905	0.625959
647	O	0.912608	0.161805	0.626242
648	O	0.747039	0.084273	0.626504
649	C	0.760396	0.22644	0.974923
650	N	0.782774	0.259433	0.658816
651	C	0.77279	0.2819	0.677123
652	C	0.735618	0.270152	0.679378
653	N	0.713182	0.237109	0.99561
654	C	0.723296	0.214767	0.977293
655	C	0.696701	0.182175	0.961131
656	C	0.799404	0.314176	0.694356
657	O	0.681981	0.183439	0.927033
658	O	0.67727	0.158103	0.987238
659	H	0.683942	0.155074	0.013998
660	O	0.826923	0.331197	0.672847
661	O	0.80345	0.31905	0.734984
662	H	0.786929	0.306625	0.755256
663	N	0.77365	0.205615	0.959265
664	H	0.756164	0.18093	0.951987
665	N	0.722377	0.291123	0.694556
666	H	0.739896	0.315869	0.701465
667	C	0.770545	0.033011	0.975079
668	N	0.737592	0.022438	0.659082
669	C	0.715071	0.489975	0.677303
670	C	0.726716	0.464471	0.679358
671	N	0.759708	0.475032	0.995461
672	C	0.782121	0.00748	0.97714
673	C	0.814799	0.013527	0.961171
674	C	0.682854	0.484375	0.694666
675	O	0.814408	0.492082	0.934275
676	O	0.841732	0.027566	0.98505
677	H	0.844859	0.041806	0.007904
678	O	0.665859	0.994975	0.673283
679	O	0.678059	0.483518	0.735313
680	H	0.690483	0.479346	0.755509
681	N	0.791313	0.067097	0.959405
682	H	0.81593	0.074273	0.951814
683	N	0.705731	0.430261	0.694526
684	H	0.680999	0.42305	0.701482
685	C	0.963891	0.236573	0.974756
686	N	0.974454	0.214189	0.658773
687	C	0.506918	0.224131	0.676997
688	C	0.532416	0.261278	0.679062
689	N	0.521862	0.283713	0.995168
690	C	0.989424	0.273679	0.976825
691	C	0.983374	0.300316	0.960881
692	C	0.512499	0.197497	0.694416
693	O	0.504788	0.321345	0.933943
694	O	0.969405	0.31325	0.984814
695	H	0.955191	0.302155	0.007699
696	O	0.002357	0.170215	0.672535
697	O	0.512982	0.193494	0.73509
698	H	0.516962	0.21004	0.755283
699	N	0.929806	0.22326	0.959079
700	H	0.922638	0.240709	0.951495
701	N	0.566604	0.274491	0.694313
702	H	0.573796	0.256961	0.701319
703	C	0.62896	0.820711	0.369858
704	N	0.653892	0.856104	0.036222
705	C	0.689591	0.867892	0.036595
706	N	0.700058	0.842964	0.036319
707	C	0.676151	0.80726	0.036637
708	N	0.640754	0.7968	0.036248
709	C	0.715103	0.904431	0.031617
710	C	0.687174	0.781743	0.031668
711	C	0.592432	0.809686	0.031419
712	O	0.660866	0.747067	0.027687
713	O	0.584064	0.835996	0.027451
714	O	0.749782	0.912802	0.027663
715	C	0.867556	0.676782	0.283395
716	N	0.842793	0.641332	0.950508
717	C	0.80705	0.629336	0.950245
718	N	0.796369	0.6541	0.950541
719	C	0.820114	0.689839	0.950099
720	N	0.855564	0.700529	0.950361
721	C	0.781739	0.592777	0.955558
722	C	0.808891	0.715179	0.955285
723	C	0.904117	0.688007	0.955256
724	O	0.835083	0.749906	0.959292
725	O	0.912608	0.661804	0.959575
726	O	0.747039	0.584273	0.959837
727	C	0.760396	0.72644	0.308254
728	N	0.782774	0.759434	0.992149
729	C	0.772791	0.781901	0.010457
730	C	0.735618	0.770153	0.012711
731	N	0.71318	0.737108	0.328943
732	C	0.723294	0.714767	0.310625
733	C	0.696701	0.682175	0.294462
734	C	0.799404	0.814177	0.027689
735	O	0.681981	0.683439	0.260365
736	O	0.67727	0.658104	0.320571
737	H	0.683942	0.655075	0.347331
738	O	0.826924	0.831197	0.006179
739	O	0.80345	0.819051	0.068316
740	H	0.786927	0.806625	0.088589
741	N	0.773651	0.705617	0.292599
742	H	0.756165	0.680932	0.28532
743	N	0.722377	0.791123	0.02789
744	H	0.739894	0.815869	0.034799
745	C	0.770545	0.53301	0.308411
746	N	0.737592	0.522438	0.992415
747	C	0.715069	0.989973	0.010636
748	C	0.726716	0.964471	0.01269
749	N	0.759708	0.975033	0.328793
750	C	0.782121	0.50748	0.310472
751	C	0.8148	0.513529	0.294503
752	C	0.682855	0.984376	0.027999
753	O	0.814408	0.992083	0.267609
754	O	0.841732	0.527566	0.318382
755	H	0.844859	0.541807	0.341237
756	O	0.665861	0.494977	0.006616
757	O	0.678057	0.983516	0.068645
758	H	0.690484	0.979347	0.088841
759	N	0.791313	0.567097	0.292738
760	H	0.815931	0.574274	0.285148
761	N	0.705732	0.930262	0.027858
762	H	0.680998	0.92305	0.034815
763	C	0.963891	0.736573	0.308089
764	N	0.974454	0.714189	0.992106
765	C	0.506917	0.724132	0.010328
766	C	0.532417	0.761279	0.012395
767	N	0.521862	0.783714	0.328503
768	C	0.989425	0.77368	0.310156
769	C	0.983374	0.800316	0.294215
770	C	0.512499	0.697498	0.027749
771	O	0.504789	0.821346	0.267276
772	O	0.969403	0.81325	0.318148
773	H	0.955192	0.802156	0.341034
774	O	0.002358	0.670216	0.005867
775	O	0.512981	0.693494	0.068422
776	H	0.516962	0.710041	0.088615
777	N	0.929807	0.723261	0.292412
778	H	0.922637	0.74071	0.284827
779	N	0.566603	0.774491	0.027647
780	H	0.573798	0.756962	0.034653
781	C	0.62896	0.820711	0.703191
782	N	0.653892	0.856104	0.369555
783	C	0.689591	0.867892	0.369928
784	N	0.700058	0.842964	0.369652
785	C	0.676151	0.80726	0.369971
786	N	0.640754	0.7968	0.369582
787	C	0.715103	0.904431	0.36495
788	C	0.687174	0.781743	0.365
789	C	0.592432	0.809686	0.364754
790	O	0.660866	0.747067	0.36102
791	O	0.584064	0.835996	0.360784
792	O	0.749782	0.912802	0.360997
793	C	0.867556	0.676782	0.616729
794	N	0.842793	0.641332	0.283839
795	C	0.80705	0.629336	0.283578
796	N	0.796369	0.6541	0.283873
797	C	0.820114	0.689839	0.283432
798	N	0.855564	0.700529	0.283695
799	C	0.781739	0.592777	0.288891
800	C	0.808891	0.715179	0.288619
801	C	0.904117	0.688007	0.28859
802	O	0.835083	0.749906	0.292624
803	O	0.912608	0.661804	0.292908
804	O	0.747039	0.584273	0.293169
805	C	0.760396	0.72644	0.641586
806	N	0.782774	0.759434	0.325481
807	C	0.772791	0.781901	0.34379
808	C	0.735618	0.770153	0.346044
809	N	0.71318	0.737108	0.662277
810	C	0.723294	0.714767	0.64396
811	C	0.696701	0.682175	0.627794
812	C	0.799404	0.814177	0.361023
813	O	0.681981	0.683439	0.593697
814	O	0.67727	0.658104	0.653905
815	H	0.683942	0.655075	0.680664
816	O	0.826924	0.831197	0.339514
817	O	0.80345	0.819051	0.401651
818	H	0.786927	0.806625	0.421923
819	N	0.773651	0.705617	0.625932
820	H	0.756165	0.680932	0.618654
821	N	0.722377	0.791123	0.361223
822	H	0.739894	0.815869	0.368132
823	C	0.770545	0.53301	0.641746
824	N	0.737592	0.522438	0.325749
825	C	0.715069	0.989973	0.34397
826	C	0.726716	0.964471	0.346024
827	N	0.759708	0.975033	0.662128
828	C	0.782121	0.50748	0.643807
829	C	0.8148	0.513529	0.627837
830	C	0.682855	0.984376	0.361333
831	O	0.814408	0.992083	0.600942
832	O	0.841732	0.527566	0.651717
833	H	0.844859	0.541807	0.67457
834	O	0.665861	0.494977	0.33995
835	O	0.678057	0.983516	0.40198
836	H	0.690484	0.979347	0.422173
837	N	0.791313	0.567097	0.626072
838	H	0.815931	0.574274	0.618481
839	N	0.705732	0.930262	0.361193
840	H	0.680998	0.92305	0.368149
841	C	0.963891	0.736573	0.641423
842	N	0.974454	0.714189	0.325439
843	C	0.506917	0.724132	0.34366
844	C	0.532417	0.761279	0.345729
845	N	0.521862	0.783714	0.661835
846	C	0.989425	0.77368	0.643491
847	C	0.983374	0.800316	0.627548
848	C	0.512499	0.697498	0.361083
849	O	0.504789	0.821346	0.600609
850	O	0.969403	0.81325	0.651481
851	H	0.955192	0.802156	0.674367
852	O	0.002358	0.670216	0.339202
853	O	0.512981	0.693494	0.401754
854	H	0.516962	0.710041	0.42195
855	N	0.929807	0.723261	0.625746
856	H	0.922637	0.74071	0.618162
857	N	0.566603	0.774491	0.36098
858	H	0.573798	0.756962	0.367986
859	C	0.62896	0.820711	0.036525
860	N	0.653892	0.856104	0.702888
861	C	0.689591	0.867892	0.703264
862	N	0.700058	0.842964	0.702988
863	C	0.676151	0.80726	0.703304
864	N	0.640754	0.7968	0.702915
865	C	0.715103	0.904431	0.698283
866	C	0.687174	0.781743	0.698333
867	C	0.592432	0.809686	0.698087
868	O	0.660866	0.747067	0.694353
869	O	0.584064	0.835996	0.694117
870	O	0.749782	0.912802	0.69433
871	C	0.867556	0.676782	0.950062
872	N	0.842793	0.641332	0.617174
873	C	0.80705	0.629336	0.616912
874	N	0.796369	0.6541	0.617208
875	C	0.820114	0.689839	0.616765
876	N	0.855564	0.700529	0.617028
877	C	0.781739	0.592777	0.622225
878	C	0.808891	0.715179	0.621952
879	C	0.904117	0.688007	0.621922
880	O	0.835083	0.749906	0.625959
881	O	0.912608	0.661804	0.626242
882	O	0.747039	0.584273	0.626504
883	C	0.760396	0.72644	0.974923
884	N	0.782774	0.759434	0.658816
885	C	0.772791	0.781901	0.677123
886	C	0.735618	0.770153	0.679378
887	N	0.71318	0.737108	0.99561
888	C	0.723294	0.714767	0.977293
889	C	0.696701	0.682175	0.961131
890	C	0.799404	0.814177	0.694356
891	O	0.681981	0.683439	0.927033
892	O	0.67727	0.658104	0.987238
893	H	0.683942	0.655075	0.013998
894	O	0.826924	0.831197	0.672847
895	O	0.80345	0.819051	0.734984
896	H	0.786927	0.806625	0.755256
897	N	0.773651	0.705617	0.959265
898	H	0.756165	0.680932	0.951987
899	N	0.722377	0.791123	0.694556
900	H	0.739894	0.815869	0.701465
901	C	0.770545	0.53301	0.975079
902	N	0.737592	0.522438	0.659082
903	C	0.715069	0.989973	0.677303
904	C	0.726716	0.964471	0.679358
905	N	0.759708	0.975033	0.995461
906	C	0.782121	0.50748	0.97714
907	C	0.8148	0.513529	0.961171
908	C	0.682855	0.984376	0.694666
909	O	0.814408	0.992083	0.934275
910	O	0.841732	0.527566	0.98505
911	H	0.844859	0.541807	0.007904
912	O	0.665861	0.494977	0.673283
913	O	0.678057	0.983516	0.735313
914	H	0.690484	0.979347	0.755509
915	N	0.791313	0.567097	0.959405
916	H	0.815931	0.574274	0.951814
917	N	0.705732	0.930262	0.694526
918	H	0.680998	0.92305	0.701482
919	C	0.963891	0.736573	0.974756
920	N	0.974454	0.714189	0.658773
921	C	0.506917	0.724132	0.676997
922	C	0.532417	0.761279	0.679062
923	N	0.521862	0.783714	0.995168
924	C	0.989425	0.77368	0.976825
925	C	0.983374	0.800316	0.960881
926	C	0.512499	0.697498	0.694416
927	O	0.504789	0.821346	0.933943
928	O	0.969403	0.81325	0.984814
929	H	0.955192	0.802156	0.007699
930	O	0.002358	0.670216	0.672535
931	O	0.512981	0.693494	0.73509
932	H	0.516962	0.710041	0.755283
933	N	0.929807	0.723261	0.959079
934	H	0.922637	0.74071	0.951495
935	N	0.566603	0.774491	0.694313
936	H	0.573798	0.756962	0.701319
