data_C432H360N144_2018-02-15_10:45:04
#******************************************
#
# CIF file created by Zeo++
# Zeo++ is an open source package to
# analyze microporous materials
#
#*******************************************

_cell_length_a		45.2834   
_cell_length_b		45.2834   
_cell_length_c		29.1498   
_cell_angle_alpha		90   
_cell_angle_beta		90   
_cell_angle_gamma		120   

_symmetry_space_group_name_H-M		'P1'
_symmetry_Int_Tables_number		1
_symmetry_cell_setting		Monoclinic

loop_
_symmetry_equiv_pos_as_xyz
'+x,+y,+z'

loop_
_atom_site_label
_atom_site_type_symbol
_atom_site_fract_x
_atom_site_fract_y
_atom_site_fract_z
1	C	0.198997	0.382216	0.033233
2	N	0.16521	0.358137	0.033218
3	C	0.154243	0.324075	0.033228
4	N	0.178321	0.314364	0.033216
5	C	0.212385	0.337462	0.03323
6	N	0.222093	0.371248	0.03322
7	C	0.237287	0.32744	0.033106
8	C	0.209019	0.41714	0.033114
9	C	0.11932	0.299172	0.0331
10	H	0.112731	0.27406	0.032333
11	H	0.190497	0.423729	0.032334
12	H	0.262398	0.345963	0.032333
13	C	0.348387	0.148	0.033804
14	N	0.381138	0.174643	0.033849
15	C	0.388461	0.207679	0.033808
16	N	0.361817	0.213788	0.033845
17	C	0.32878	0.188072	0.033802
18	N	0.322671	0.155321	0.033844
19	C	0.300884	0.19372	0.034281
20	C	0.342738	0.114455	0.03429
21	H	0.364092	0.112527	0.034155
22	H	0.277602	0.172367	0.034143
23	C	0.281761	0.238417	0.36886
24	C	0.299179	0.274307	0.364977
25	C	0.281929	0.292891	0.365045
26	C	0.246105	0.276357	0.035318
27	C	0.227563	0.240099	0.039669
28	H	0.295953	0.318806	0.361848
29	H	0.325192	0.2876	0.361673
30	C	0.245369	0.221152	0.040541
31	C	0.189422	0.222105	0.043293
32	H	0.17835	0.238536	0.040093
33	H	0.181462	0.209566	0.076628
34	H	0.178087	0.203067	0.016113
35	C	0.22658	0.183406	0.047463
36	H	0.237383	0.177013	0.07671
37	H	0.228516	0.171019	0.016438
38	H	0.199551	0.171986	0.0548
39	N	0.302893	0.224769	0.367495
40	N	0.229153	0.294271	0.035054
41	C	0.29804	0.050636	0.36887
42	C	0.26215	0.032164	0.364984
43	C	0.243567	0.496331	0.365063
44	C	0.260101	0.47704	0.03533
45	C	0.29636	0.494757	0.039687
46	H	0.217652	0.484438	0.361831
47	H	0.248858	0.044884	0.361659
48	C	0.315306	0.03151	0.040563
49	C	0.314353	0.47461	0.043313
50	H	0.297923	0.447107	0.040109
51	H	0.326889	0.479187	0.076651
52	H	0.333393	0.482314	0.016137
53	C	0.353051	0.050466	0.047489
54	H	0.359444	0.067665	0.076733
55	H	0.36544	0.064786	0.016463
56	H	0.36447	0.034858	0.054834
57	N	0.311689	0.085416	0.367502
58	N	0.242188	0.442175	0.035063
59	C	0.040129	0.25453	0.365052
60	C	0.05942	0.290354	0.035328
61	C	0.041702	0.308895	0.039689
62	H	0.052021	0.240507	0.361824
63	C	0.061848	0.347034	0.043319
64	H	0.089351	0.358109	0.040108
65	H	0.057274	0.35499	0.07666
66	H	0.05414	0.358371	0.016148
67	N	0.094285	0.307306	0.035057
68	C	0.198997	0.382216	0.366565
69	N	0.16521	0.358137	0.366551
70	C	0.154243	0.324075	0.366562
71	N	0.178321	0.314364	0.366548
72	C	0.212385	0.337462	0.366565
73	N	0.222093	0.371248	0.366555
74	C	0.237287	0.32744	0.366438
75	C	0.209019	0.41714	0.366448
76	C	0.11932	0.299172	0.366435
77	H	0.112731	0.27406	0.365666
78	H	0.190497	0.423729	0.365666
79	H	0.262398	0.345963	0.365666
80	C	0.348387	0.148	0.367138
81	N	0.381138	0.174643	0.367183
82	C	0.388461	0.207679	0.367141
83	N	0.361817	0.213788	0.367179
84	C	0.32878	0.188072	0.367135
85	N	0.322671	0.155321	0.367176
86	C	0.300884	0.19372	0.367615
87	C	0.342738	0.114455	0.367622
88	H	0.364092	0.112527	0.367488
89	H	0.277602	0.172367	0.367478
90	C	0.281761	0.238417	0.702193
91	C	0.299179	0.274307	0.69831
92	C	0.281929	0.292891	0.698379
93	C	0.246105	0.276357	0.368651
94	C	0.227563	0.240099	0.373001
95	H	0.295953	0.318806	0.695181
96	H	0.325192	0.2876	0.695006
97	C	0.245369	0.221152	0.373876
98	C	0.189422	0.222105	0.376627
99	H	0.17835	0.238536	0.373426
100	H	0.181462	0.209566	0.409962
101	H	0.178087	0.203067	0.349447
102	C	0.22658	0.183406	0.380795
103	H	0.237383	0.177013	0.410044
104	H	0.228516	0.171019	0.349773
105	H	0.199551	0.171986	0.388133
106	N	0.302893	0.224769	0.700828
107	N	0.229153	0.294271	0.368387
108	C	0.29804	0.050636	0.702204
109	C	0.26215	0.032164	0.698317
110	C	0.243567	0.496331	0.698396
111	C	0.260101	0.47704	0.368665
112	C	0.29636	0.494757	0.373021
113	H	0.217652	0.484438	0.695164
114	H	0.248858	0.044884	0.694993
115	C	0.315306	0.03151	0.373896
116	C	0.314353	0.47461	0.376647
117	H	0.297923	0.447107	0.373443
118	H	0.326889	0.479187	0.409986
119	H	0.333393	0.482314	0.349471
120	C	0.353051	0.050466	0.380822
121	H	0.359444	0.067665	0.410068
122	H	0.36544	0.064786	0.349797
123	H	0.36447	0.034858	0.388167
124	N	0.311689	0.085416	0.700835
125	N	0.242188	0.442175	0.368397
126	C	0.040129	0.25453	0.698386
127	C	0.05942	0.290354	0.368661
128	C	0.041702	0.308895	0.373021
129	H	0.052021	0.240507	0.695157
130	C	0.061848	0.347034	0.376651
131	H	0.089351	0.358109	0.37344
132	H	0.057274	0.35499	0.409992
133	H	0.05414	0.358371	0.349481
134	N	0.094285	0.307306	0.36839
135	C	0.198997	0.382216	0.699898
136	N	0.16521	0.358137	0.699885
137	C	0.154243	0.324075	0.699895
138	N	0.178321	0.314364	0.699881
139	C	0.212385	0.337462	0.699898
140	N	0.222093	0.371248	0.699888
141	C	0.237287	0.32744	0.699771
142	C	0.209019	0.41714	0.699782
143	C	0.11932	0.299172	0.699768
144	H	0.112731	0.27406	0.699
145	H	0.190497	0.423729	0.699
146	H	0.262398	0.345963	0.699
147	C	0.348387	0.148	0.700471
148	N	0.381138	0.174643	0.700516
149	C	0.388461	0.207679	0.700475
150	N	0.361817	0.213788	0.700512
151	C	0.32878	0.188072	0.700468
152	N	0.322671	0.155321	0.700509
153	C	0.300884	0.19372	0.700948
154	C	0.342738	0.114455	0.700955
155	H	0.364092	0.112527	0.700821
156	H	0.277602	0.172367	0.700811
157	C	0.281761	0.238417	0.035525
158	C	0.299179	0.274307	0.031642
159	C	0.281929	0.292891	0.031713
160	C	0.246105	0.276357	0.701984
161	C	0.227563	0.240099	0.706334
162	H	0.295953	0.318806	0.028514
163	H	0.325192	0.2876	0.02834
164	C	0.245369	0.221152	0.707209
165	C	0.189422	0.222105	0.70996
166	H	0.17835	0.238536	0.70676
167	H	0.181462	0.209566	0.743295
168	H	0.178087	0.203067	0.68278
169	C	0.22658	0.183406	0.714128
170	H	0.237383	0.177013	0.743377
171	H	0.228516	0.171019	0.683106
172	H	0.199551	0.171986	0.721466
173	N	0.302893	0.224769	0.03416
174	N	0.229153	0.294271	0.70172
175	C	0.29804	0.050636	0.035537
176	C	0.26215	0.032164	0.031651
177	C	0.243567	0.496331	0.031731
178	C	0.260101	0.47704	0.701998
179	C	0.29636	0.494757	0.706355
180	H	0.217652	0.484438	0.028498
181	H	0.248858	0.044884	0.028327
182	C	0.315306	0.03151	0.70723
183	C	0.314353	0.47461	0.709981
184	H	0.297923	0.447107	0.706777
185	H	0.326889	0.479187	0.743319
186	H	0.333393	0.482314	0.682804
187	C	0.353051	0.050466	0.714156
188	H	0.359444	0.067665	0.743401
189	H	0.36544	0.064786	0.68313
190	H	0.36447	0.034858	0.721501
191	N	0.311689	0.085416	0.034168
192	N	0.242188	0.442175	0.70173
193	C	0.040129	0.25453	0.03172
194	C	0.05942	0.290354	0.701994
195	C	0.041702	0.308895	0.706355
196	H	0.052021	0.240507	0.028492
197	C	0.061848	0.347034	0.709984
198	H	0.089351	0.358109	0.706773
199	H	0.057274	0.35499	0.743326
200	H	0.05414	0.358371	0.682814
201	N	0.094285	0.307306	0.701723
202	C	0.198997	0.882216	0.033233
203	N	0.16521	0.858137	0.033218
204	C	0.154243	0.824075	0.033228
205	N	0.178321	0.814364	0.033216
206	C	0.212385	0.837462	0.03323
207	N	0.222093	0.871249	0.03322
208	C	0.237287	0.827441	0.033106
209	C	0.209019	0.91714	0.033114
210	C	0.11932	0.799172	0.0331
211	H	0.112731	0.77406	0.032333
212	H	0.190496	0.923729	0.032334
213	H	0.262398	0.845963	0.032333
214	C	0.348388	0.648001	0.033804
215	N	0.381139	0.674643	0.033849
216	C	0.38846	0.70768	0.033808
217	N	0.361816	0.713787	0.033845
218	C	0.32878	0.688074	0.033802
219	N	0.322672	0.655322	0.033844
220	C	0.300883	0.693719	0.034281
221	C	0.342739	0.614457	0.03429
222	H	0.364091	0.612526	0.034155
223	H	0.277603	0.672368	0.034143
224	C	0.281761	0.738417	0.36886
225	C	0.299179	0.774307	0.364977
226	C	0.281928	0.792891	0.365045
227	C	0.246104	0.776358	0.035318
228	C	0.227563	0.7401	0.039669
229	H	0.295954	0.818809	0.361848
230	H	0.325192	0.7876	0.361673
231	C	0.245369	0.721151	0.040541
232	C	0.189422	0.722105	0.043293
233	H	0.17835	0.738537	0.040093
234	H	0.181463	0.709567	0.076628
235	H	0.178087	0.703067	0.016113
236	C	0.22658	0.683407	0.047463
237	H	0.237382	0.677012	0.07671
238	H	0.228516	0.67102	0.016438
239	H	0.199551	0.671986	0.0548
240	N	0.302893	0.72477	0.367495
241	N	0.229152	0.794271	0.035054
242	C	0.298041	0.550637	0.36887
243	C	0.262151	0.532165	0.364984
244	C	0.243567	0.996331	0.365063
245	C	0.260101	0.97704	0.03533
246	C	0.296359	0.994757	0.039687
247	H	0.217653	0.984438	0.361831
248	H	0.248859	0.544884	0.361659
249	C	0.315306	0.53151	0.040563
250	C	0.314353	0.97461	0.043313
251	H	0.297923	0.947107	0.040109
252	H	0.326889	0.979188	0.076651
253	H	0.333393	0.982314	0.016137
254	C	0.353051	0.550466	0.047489
255	H	0.359443	0.567665	0.076733
256	H	0.36544	0.564786	0.016463
257	H	0.36447	0.534858	0.054834
258	N	0.31169	0.585415	0.367502
259	N	0.242187	0.942175	0.035063
260	C	0.040128	0.75453	0.365052
261	C	0.059421	0.790354	0.035328
262	C	0.041703	0.808895	0.039689
263	H	0.05202	0.740508	0.361824
264	C	0.061848	0.847034	0.043319
265	H	0.089351	0.858109	0.040108
266	H	0.057275	0.854993	0.07666
267	H	0.054141	0.858371	0.016148
268	N	0.094284	0.807306	0.035057
269	C	0.198997	0.882216	0.366565
270	N	0.16521	0.858137	0.366551
271	C	0.154243	0.824075	0.366562
272	N	0.178321	0.814364	0.366548
273	C	0.212385	0.837462	0.366565
274	N	0.222093	0.871249	0.366555
275	C	0.237287	0.827441	0.366438
276	C	0.209019	0.91714	0.366448
277	C	0.11932	0.799172	0.366435
278	H	0.112731	0.77406	0.365666
279	H	0.190496	0.923729	0.365666
280	H	0.262398	0.845963	0.365666
281	C	0.348388	0.648001	0.367138
282	N	0.381139	0.674643	0.367183
283	C	0.38846	0.70768	0.367141
284	N	0.361816	0.713787	0.367179
285	C	0.32878	0.688074	0.367135
286	N	0.322672	0.655322	0.367176
287	C	0.300883	0.693719	0.367615
288	C	0.342739	0.614457	0.367622
289	H	0.364091	0.612526	0.367488
290	H	0.277603	0.672368	0.367478
291	C	0.281761	0.738417	0.702193
292	C	0.299179	0.774307	0.69831
293	C	0.281928	0.792891	0.698379
294	C	0.246104	0.776358	0.368651
295	C	0.227563	0.7401	0.373001
296	H	0.295954	0.818809	0.695181
297	H	0.325192	0.7876	0.695006
298	C	0.245369	0.721151	0.373876
299	C	0.189422	0.722105	0.376627
300	H	0.17835	0.738537	0.373426
301	H	0.181463	0.709567	0.409962
302	H	0.178087	0.703067	0.349447
303	C	0.22658	0.683407	0.380795
304	H	0.237382	0.677012	0.410044
305	H	0.228516	0.67102	0.349773
306	H	0.199551	0.671986	0.388133
307	N	0.302893	0.72477	0.700828
308	N	0.229152	0.794271	0.368387
309	C	0.298041	0.550637	0.702204
310	C	0.262151	0.532165	0.698317
311	C	0.243567	0.996331	0.698396
312	C	0.260101	0.97704	0.368665
313	C	0.296359	0.994757	0.373021
314	H	0.217653	0.984438	0.695164
315	H	0.248859	0.544884	0.694993
316	C	0.315306	0.53151	0.373896
317	C	0.314353	0.97461	0.376647
318	H	0.297923	0.947107	0.373443
319	H	0.326889	0.979188	0.409986
320	H	0.333393	0.982314	0.349471
321	C	0.353051	0.550466	0.380822
322	H	0.359443	0.567665	0.410068
323	H	0.36544	0.564786	0.349797
324	H	0.36447	0.534858	0.388167
325	N	0.31169	0.585415	0.700835
326	N	0.242187	0.942175	0.368397
327	C	0.040128	0.75453	0.698386
328	C	0.059421	0.790354	0.368661
329	C	0.041703	0.808895	0.373021
330	H	0.05202	0.740508	0.695157
331	C	0.061848	0.847034	0.376651
332	H	0.089351	0.858109	0.37344
333	H	0.057275	0.854993	0.409992
334	H	0.054141	0.858371	0.349481
335	N	0.094284	0.807306	0.36839
336	C	0.198997	0.882216	0.699898
337	N	0.16521	0.858137	0.699885
338	C	0.154243	0.824075	0.699895
339	N	0.178321	0.814364	0.699881
340	C	0.212385	0.837462	0.699898
341	N	0.222093	0.871249	0.699888
342	C	0.237287	0.827441	0.699771
343	C	0.209019	0.91714	0.699782
344	C	0.11932	0.799172	0.699768
345	H	0.112731	0.77406	0.699
346	H	0.190496	0.923729	0.699
347	H	0.262398	0.845963	0.699
348	C	0.348388	0.648001	0.700471
349	N	0.381139	0.674643	0.700516
350	C	0.38846	0.70768	0.700475
351	N	0.361816	0.713787	0.700512
352	C	0.32878	0.688074	0.700468
353	N	0.322672	0.655322	0.700509
354	C	0.300883	0.693719	0.700948
355	C	0.342739	0.614457	0.700955
356	H	0.364091	0.612526	0.700821
357	H	0.277603	0.672368	0.700811
358	C	0.281761	0.738417	0.035525
359	C	0.299179	0.774307	0.031642
360	C	0.281928	0.792891	0.031713
361	C	0.246104	0.776358	0.701984
362	C	0.227563	0.7401	0.706334
363	H	0.295954	0.818809	0.028514
364	H	0.325192	0.7876	0.02834
365	C	0.245369	0.721151	0.707209
366	C	0.189422	0.722105	0.70996
367	H	0.17835	0.738537	0.70676
368	H	0.181463	0.709567	0.743295
369	H	0.178087	0.703067	0.68278
370	C	0.22658	0.683407	0.714128
371	H	0.237382	0.677012	0.743377
372	H	0.228516	0.67102	0.683106
373	H	0.199551	0.671986	0.721466
374	N	0.302893	0.72477	0.03416
375	N	0.229152	0.794271	0.70172
376	C	0.298041	0.550637	0.035537
377	C	0.262151	0.532165	0.031651
378	C	0.243567	0.996331	0.031731
379	C	0.260101	0.97704	0.701998
380	C	0.296359	0.994757	0.706355
381	H	0.217653	0.984438	0.028498
382	H	0.248859	0.544884	0.028327
383	C	0.315306	0.53151	0.70723
384	C	0.314353	0.97461	0.709981
385	H	0.297923	0.947107	0.706777
386	H	0.326889	0.979188	0.743319
387	H	0.333393	0.982314	0.682804
388	C	0.353051	0.550466	0.714156
389	H	0.359443	0.567665	0.743401
390	H	0.36544	0.564786	0.68313
391	H	0.36447	0.534858	0.721501
392	N	0.31169	0.585415	0.034168
393	N	0.242187	0.942175	0.70173
394	C	0.040128	0.75453	0.03172
395	C	0.059421	0.790354	0.701994
396	C	0.041703	0.808895	0.706355
397	H	0.05202	0.740508	0.028492
398	C	0.061848	0.847034	0.709984
399	H	0.089351	0.858109	0.706773
400	H	0.057275	0.854993	0.743326
401	H	0.054141	0.858371	0.682814
402	N	0.094284	0.807306	0.701723
403	C	0.422005	0.235575	0.034291
404	H	0.423934	0.258857	0.034144
405	C	0.485824	0.254696	0.36887
406	C	0.504295	0.237279	0.36498
407	H	0.491576	0.211267	0.361656
408	C	0.50495	0.291089	0.040564
409	C	0.485992	0.309874	0.047506
410	H	0.468792	0.29906	0.076746
411	H	0.471675	0.307951	0.016481
412	H	0.501601	0.336901	0.054863
413	N	0.451044	0.233565	0.367502
414	C	0.422005	0.235575	0.367625
415	H	0.423934	0.258857	0.367478
416	C	0.485824	0.254696	0.702204
417	C	0.504295	0.237279	0.698313
418	H	0.491576	0.211267	0.694989
419	C	0.50495	0.291089	0.373896
420	C	0.485992	0.309874	0.38084
421	H	0.468792	0.29906	0.410078
422	H	0.471675	0.307951	0.349814
423	H	0.501601	0.336901	0.388198
424	N	0.451044	0.233565	0.700835
425	C	0.422005	0.235575	0.700958
426	H	0.423934	0.258857	0.700811
427	C	0.485824	0.254696	0.035536
428	C	0.504295	0.237279	0.031646
429	H	0.491576	0.211267	0.028321
430	C	0.50495	0.291089	0.70723
431	C	0.485992	0.309874	0.714173
432	H	0.468792	0.29906	0.743412
433	H	0.471675	0.307951	0.683147
434	H	0.501601	0.336901	0.721531
435	N	0.451044	0.233565	0.034169
436	C	0.422005	0.735576	0.034291
437	H	0.423933	0.758857	0.034144
438	C	0.485823	0.754696	0.36887
439	C	0.504296	0.73728	0.36498
440	H	0.491576	0.711268	0.361656
441	C	0.504949	0.791089	0.040564
442	C	0.485992	0.809874	0.047506
443	H	0.468792	0.79906	0.076746
444	H	0.471674	0.807951	0.016481
445	H	0.501601	0.836901	0.054863
446	N	0.451043	0.733564	0.367502
447	C	0.422005	0.735576	0.367625
448	H	0.423933	0.758857	0.367478
449	C	0.485823	0.754696	0.702204
450	C	0.504296	0.73728	0.698313
451	H	0.491576	0.711268	0.694989
452	C	0.504949	0.791089	0.373896
453	C	0.485992	0.809874	0.38084
454	H	0.468792	0.79906	0.410078
455	H	0.471674	0.807951	0.349814
456	H	0.501601	0.836901	0.388198
457	N	0.451043	0.733564	0.700835
458	C	0.422005	0.735576	0.700958
459	H	0.423933	0.758857	0.700811
460	C	0.485823	0.754696	0.035536
461	C	0.504296	0.73728	0.031646
462	H	0.491576	0.711268	0.028321
463	C	0.504949	0.791089	0.70723
464	C	0.485992	0.809874	0.714173
465	H	0.468792	0.79906	0.743412
466	H	0.471674	0.807951	0.683147
467	H	0.501601	0.836901	0.721531
468	N	0.451043	0.733564	0.034169
469	C	0.540129	0.25453	0.365052
470	C	0.559419	0.290354	0.035328
471	C	0.541702	0.308895	0.039689
472	H	0.552021	0.240507	0.361824
473	C	0.561849	0.347034	0.043319
474	H	0.557274	0.35499	0.07666
475	H	0.55414	0.358371	0.016148
476	C	0.540129	0.25453	0.698386
477	C	0.559419	0.290354	0.368661
478	C	0.541702	0.308895	0.373021
479	H	0.552021	0.240507	0.695157
480	C	0.561849	0.347034	0.376651
481	H	0.557274	0.35499	0.409992
482	H	0.55414	0.358371	0.349481
483	C	0.540129	0.25453	0.03172
484	C	0.559419	0.290354	0.701994
485	C	0.541702	0.308895	0.706355
486	H	0.552021	0.240507	0.028492
487	C	0.561849	0.347034	0.709984
488	H	0.557274	0.35499	0.743326
489	H	0.55414	0.358371	0.682814
490	C	0.54013	0.75453	0.365052
491	C	0.55942	0.790354	0.035328
492	C	0.541702	0.808895	0.039689
493	H	0.552022	0.740508	0.361824
494	C	0.561848	0.847034	0.043319
495	H	0.557275	0.854993	0.07666
496	H	0.55414	0.858371	0.016148
497	C	0.54013	0.75453	0.698386
498	C	0.55942	0.790354	0.368661
499	C	0.541702	0.808895	0.373021
500	H	0.552022	0.740508	0.695157
501	C	0.561848	0.847034	0.376651
502	H	0.557275	0.854993	0.409992
503	H	0.55414	0.858371	0.349481
504	C	0.54013	0.75453	0.03172
505	C	0.55942	0.790354	0.701994
506	C	0.541702	0.808895	0.706355
507	H	0.552022	0.740508	0.028492
508	C	0.561848	0.847034	0.709984
509	H	0.557275	0.854993	0.743326
510	H	0.55414	0.858371	0.682814
511	N	0.665209	0.358137	0.033218
512	C	0.654244	0.324075	0.033228
513	N	0.678322	0.314364	0.033216
514	C	0.619321	0.299172	0.0331
515	H	0.612732	0.27406	0.032333
516	H	0.678349	0.238536	0.040093
517	H	0.681462	0.209566	0.076628
518	H	0.678087	0.203067	0.016113
519	H	0.589353	0.358109	0.040108
520	N	0.594285	0.307306	0.035057
521	N	0.665209	0.358137	0.366551
522	C	0.654244	0.324075	0.366562
523	N	0.678322	0.314364	0.366548
524	C	0.619321	0.299172	0.366435
525	H	0.612732	0.27406	0.365666
526	H	0.678349	0.238536	0.373426
527	H	0.681462	0.209566	0.409962
528	H	0.678087	0.203067	0.349447
529	H	0.589353	0.358109	0.37344
530	N	0.594285	0.307306	0.36839
531	N	0.665209	0.358137	0.699885
532	C	0.654244	0.324075	0.699895
533	N	0.678322	0.314364	0.699881
534	C	0.619321	0.299172	0.699768
535	H	0.612732	0.27406	0.699
536	H	0.678349	0.238536	0.70676
537	H	0.681462	0.209566	0.743295
538	H	0.678087	0.203067	0.68278
539	H	0.589353	0.358109	0.706773
540	N	0.594285	0.307306	0.701723
541	N	0.66521	0.858137	0.033218
542	C	0.654243	0.824075	0.033228
543	N	0.678321	0.814364	0.033216
544	C	0.61932	0.799172	0.0331
545	H	0.612731	0.77406	0.032333
546	H	0.678351	0.738537	0.040093
547	H	0.681464	0.709567	0.076628
548	H	0.678086	0.703067	0.016113
549	H	0.589352	0.858109	0.040108
550	N	0.594285	0.807306	0.035057
551	N	0.66521	0.858137	0.366551
552	C	0.654243	0.824075	0.366562
553	N	0.678321	0.814364	0.366548
554	C	0.61932	0.799172	0.366435
555	H	0.612731	0.77406	0.365666
556	H	0.678351	0.738537	0.373426
557	H	0.681464	0.709567	0.409962
558	H	0.678086	0.703067	0.349447
559	H	0.589352	0.858109	0.37344
560	N	0.594285	0.807306	0.36839
561	N	0.66521	0.858137	0.699885
562	C	0.654243	0.824075	0.699895
563	N	0.678321	0.814364	0.699881
564	C	0.61932	0.799172	0.699768
565	H	0.612731	0.77406	0.699
566	H	0.678351	0.738537	0.70676
567	H	0.681464	0.709567	0.743295
568	H	0.678086	0.703067	0.68278
569	H	0.589352	0.858109	0.706773
570	N	0.594285	0.807306	0.701723
571	C	0.698998	0.382216	0.033233
572	C	0.712385	0.337462	0.03323
573	N	0.722095	0.371248	0.03322
574	C	0.737288	0.32744	0.033106
575	C	0.70902	0.41714	0.033114
576	H	0.690497	0.423729	0.032334
577	H	0.762398	0.345963	0.032333
578	C	0.848387	0.148	0.033804
579	N	0.88114	0.174643	0.033849
580	C	0.888461	0.207679	0.033808
581	N	0.861817	0.213788	0.033845
582	C	0.82878	0.188072	0.033802
583	N	0.822673	0.155321	0.033844
584	C	0.800884	0.19372	0.034281
585	C	0.842738	0.114455	0.03429
586	C	0.922005	0.235575	0.034291
587	H	0.923934	0.258857	0.034144
588	H	0.864092	0.112527	0.034155
589	H	0.777602	0.172367	0.034143
590	C	0.781761	0.238417	0.36886
591	C	0.79918	0.274307	0.364977
592	C	0.78193	0.292891	0.365045
593	C	0.746106	0.276357	0.035318
594	C	0.727563	0.240099	0.039669
595	H	0.795952	0.318806	0.361848
596	H	0.825193	0.2876	0.361673
597	C	0.745369	0.221152	0.040541
598	C	0.689423	0.222105	0.043293
599	C	0.72658	0.183406	0.047463
600	H	0.737382	0.177013	0.07671
601	H	0.728516	0.171019	0.016438
602	H	0.699551	0.171986	0.0548
603	N	0.802894	0.224769	0.367495
604	N	0.729152	0.294271	0.035054
605	C	0.798043	0.050636	0.36887
606	C	0.762152	0.032164	0.364984
607	C	0.743568	0.496331	0.365063
608	C	0.760102	0.47704	0.03533
609	C	0.796359	0.494757	0.039687
610	H	0.717654	0.484438	0.361831
611	H	0.748861	0.044884	0.361659
612	C	0.815306	0.03151	0.040563
613	C	0.814353	0.47461	0.043313
614	H	0.797923	0.447107	0.040109
615	H	0.826888	0.479187	0.076651
616	H	0.833394	0.482314	0.016137
617	C	0.853051	0.050466	0.047489
618	H	0.859444	0.067665	0.076733
619	H	0.86544	0.064786	0.016463
620	H	0.86447	0.034858	0.054834
621	N	0.811689	0.085416	0.367502
622	N	0.742188	0.442175	0.035063
623	C	0.985824	0.254696	0.36887
624	C	0.004295	0.237279	0.36498
625	H	0.991576	0.211267	0.361656
626	C	0.00495	0.291089	0.040564
627	C	0.985992	0.309874	0.047506
628	H	0.968792	0.29906	0.076746
629	H	0.971675	0.307951	0.016481
630	H	0.001601	0.336901	0.054863
631	N	0.951044	0.233565	0.367502
632	C	0.698998	0.382216	0.366565
633	C	0.712385	0.337462	0.366565
634	N	0.722095	0.371248	0.366555
635	C	0.737288	0.32744	0.366438
636	C	0.70902	0.41714	0.366448
637	H	0.690497	0.423729	0.365666
638	H	0.762398	0.345963	0.365666
639	C	0.848387	0.148	0.367138
640	N	0.88114	0.174643	0.367183
641	C	0.888461	0.207679	0.367141
642	N	0.861817	0.213788	0.367179
643	C	0.82878	0.188072	0.367135
644	N	0.822673	0.155321	0.367176
645	C	0.800884	0.19372	0.367615
646	C	0.842738	0.114455	0.367622
647	C	0.922005	0.235575	0.367625
648	H	0.923934	0.258857	0.367478
649	H	0.864092	0.112527	0.367488
650	H	0.777602	0.172367	0.367478
651	C	0.781761	0.238417	0.702193
652	C	0.79918	0.274307	0.69831
653	C	0.78193	0.292891	0.698379
654	C	0.746106	0.276357	0.368651
655	C	0.727563	0.240099	0.373001
656	H	0.795952	0.318806	0.695181
657	H	0.825193	0.2876	0.695006
658	C	0.745369	0.221152	0.373876
659	C	0.689423	0.222105	0.376627
660	C	0.72658	0.183406	0.380795
661	H	0.737382	0.177013	0.410044
662	H	0.728516	0.171019	0.349773
663	H	0.699551	0.171986	0.388133
664	N	0.802894	0.224769	0.700828
665	N	0.729152	0.294271	0.368387
666	C	0.798043	0.050636	0.702204
667	C	0.762152	0.032164	0.698317
668	C	0.743568	0.496331	0.698396
669	C	0.760102	0.47704	0.368665
670	C	0.796359	0.494757	0.373021
671	H	0.717654	0.484438	0.695164
672	H	0.748861	0.044884	0.694993
673	C	0.815306	0.03151	0.373896
674	C	0.814353	0.47461	0.376647
675	H	0.797923	0.447107	0.373443
676	H	0.826888	0.479187	0.409986
677	H	0.833394	0.482314	0.349471
678	C	0.853051	0.050466	0.380822
679	H	0.859444	0.067665	0.410068
680	H	0.86544	0.064786	0.349797
681	H	0.86447	0.034858	0.388167
682	N	0.811689	0.085416	0.700835
683	N	0.742188	0.442175	0.368397
684	C	0.985824	0.254696	0.702204
685	C	0.004295	0.237279	0.698313
686	H	0.991576	0.211267	0.694989
687	C	0.00495	0.291089	0.373896
688	C	0.985992	0.309874	0.38084
689	H	0.968792	0.29906	0.410078
690	H	0.971675	0.307951	0.349814
691	H	0.001601	0.336901	0.388198
692	N	0.951044	0.233565	0.700835
693	C	0.698998	0.382216	0.699898
694	C	0.712385	0.337462	0.699898
695	N	0.722095	0.371248	0.699888
696	C	0.737288	0.32744	0.699771
697	C	0.70902	0.41714	0.699782
698	H	0.690497	0.423729	0.699
699	H	0.762398	0.345963	0.699
700	C	0.848387	0.148	0.700471
701	N	0.88114	0.174643	0.700516
702	C	0.888461	0.207679	0.700475
703	N	0.861817	0.213788	0.700512
704	C	0.82878	0.188072	0.700468
705	N	0.822673	0.155321	0.700509
706	C	0.800884	0.19372	0.700948
707	C	0.842738	0.114455	0.700955
708	C	0.922005	0.235575	0.700958
709	H	0.923934	0.258857	0.700811
710	H	0.864092	0.112527	0.700821
711	H	0.777602	0.172367	0.700811
712	C	0.781761	0.238417	0.035525
713	C	0.79918	0.274307	0.031642
714	C	0.78193	0.292891	0.031713
715	C	0.746106	0.276357	0.701984
716	C	0.727563	0.240099	0.706334
717	H	0.795952	0.318806	0.028514
718	H	0.825193	0.2876	0.02834
719	C	0.745369	0.221152	0.707209
720	C	0.689423	0.222105	0.70996
721	C	0.72658	0.183406	0.714128
722	H	0.737382	0.177013	0.743377
723	H	0.728516	0.171019	0.683106
724	H	0.699551	0.171986	0.721466
725	N	0.802894	0.224769	0.03416
726	N	0.729152	0.294271	0.70172
727	C	0.798043	0.050636	0.035537
728	C	0.762152	0.032164	0.031651
729	C	0.743568	0.496331	0.031731
730	C	0.760102	0.47704	0.701998
731	C	0.796359	0.494757	0.706355
732	H	0.717654	0.484438	0.028498
733	H	0.748861	0.044884	0.028327
734	C	0.815306	0.03151	0.70723
735	C	0.814353	0.47461	0.709981
736	H	0.797923	0.447107	0.706777
737	H	0.826888	0.479187	0.743319
738	H	0.833394	0.482314	0.682804
739	C	0.853051	0.050466	0.714156
740	H	0.859444	0.067665	0.743401
741	H	0.86544	0.064786	0.68313
742	H	0.86447	0.034858	0.721501
743	N	0.811689	0.085416	0.034168
744	N	0.742188	0.442175	0.70173
745	C	0.985824	0.254696	0.035536
746	C	0.004295	0.237279	0.031646
747	H	0.991576	0.211267	0.028321
748	C	0.00495	0.291089	0.70723
749	C	0.985992	0.309874	0.714173
750	H	0.968792	0.29906	0.743412
751	H	0.971675	0.307951	0.683147
752	H	0.001601	0.336901	0.721531
753	N	0.951044	0.233565	0.034169
754	C	0.698997	0.882216	0.033233
755	C	0.712386	0.837462	0.03323
756	N	0.722093	0.871249	0.03322
757	C	0.737287	0.827441	0.033106
758	C	0.709019	0.91714	0.033114
759	H	0.690498	0.923729	0.032334
760	H	0.762397	0.845963	0.032333
761	C	0.848389	0.648001	0.033804
762	N	0.881139	0.674643	0.033849
763	C	0.88846	0.70768	0.033808
764	N	0.861816	0.713787	0.033845
765	C	0.828782	0.688074	0.033802
766	N	0.822672	0.655322	0.033844
767	C	0.800882	0.693719	0.034281
768	C	0.84274	0.614457	0.03429
769	C	0.922005	0.735576	0.034291
770	H	0.923933	0.758857	0.034144
771	H	0.864092	0.612526	0.034155
772	H	0.777604	0.672368	0.034143
773	C	0.781761	0.738417	0.36886
774	C	0.799179	0.774307	0.364977
775	C	0.781929	0.792891	0.365045
776	C	0.746105	0.776358	0.035318
777	C	0.727563	0.7401	0.039669
778	H	0.795955	0.818809	0.361848
779	H	0.825192	0.7876	0.361673
780	C	0.74537	0.721151	0.040541
781	C	0.689422	0.722105	0.043293
782	C	0.726582	0.683407	0.047463
783	H	0.737383	0.677012	0.07671
784	H	0.728517	0.67102	0.016438
785	H	0.699552	0.671986	0.0548
786	N	0.802893	0.72477	0.367495
787	N	0.729153	0.794271	0.035054
788	C	0.798042	0.550637	0.36887
789	C	0.762152	0.532165	0.364984
790	C	0.743567	0.996331	0.365063
791	C	0.760101	0.97704	0.03533
792	C	0.79636	0.994757	0.039687
793	H	0.717653	0.984438	0.361831
794	H	0.748859	0.544884	0.361659
795	C	0.815307	0.53151	0.040563
796	C	0.814354	0.97461	0.043313
797	H	0.797924	0.947107	0.040109
798	H	0.82689	0.979188	0.076651
799	H	0.833393	0.982314	0.016137
800	C	0.853052	0.550466	0.047489
801	H	0.859443	0.567665	0.076733
802	H	0.865441	0.564786	0.016463
803	H	0.864471	0.534858	0.054834
804	N	0.81169	0.585415	0.367502
805	N	0.742189	0.942175	0.035063
806	C	0.985823	0.754696	0.36887
807	C	0.004297	0.73728	0.36498
808	H	0.991576	0.711268	0.361656
809	C	0.004951	0.791089	0.040564
810	C	0.985993	0.809874	0.047506
811	H	0.968791	0.79906	0.076746
812	H	0.971674	0.807951	0.016481
813	H	0.001602	0.836901	0.054863
814	N	0.951043	0.733564	0.367502
815	C	0.698997	0.882216	0.366565
816	C	0.712386	0.837462	0.366565
817	N	0.722093	0.871249	0.366555
818	C	0.737287	0.827441	0.366438
819	C	0.709019	0.91714	0.366448
820	H	0.690498	0.923729	0.365666
821	H	0.762397	0.845963	0.365666
822	C	0.848389	0.648001	0.367138
823	N	0.881139	0.674643	0.367183
824	C	0.88846	0.70768	0.367141
825	N	0.861816	0.713787	0.367179
826	C	0.828782	0.688074	0.367135
827	N	0.822672	0.655322	0.367176
828	C	0.800882	0.693719	0.367615
829	C	0.84274	0.614457	0.367622
830	C	0.922005	0.735576	0.367625
831	H	0.923933	0.758857	0.367478
832	H	0.864092	0.612526	0.367488
833	H	0.777604	0.672368	0.367478
834	C	0.781761	0.738417	0.702193
835	C	0.799179	0.774307	0.69831
836	C	0.781929	0.792891	0.698379
837	C	0.746105	0.776358	0.368651
838	C	0.727563	0.7401	0.373001
839	H	0.795955	0.818809	0.695181
840	H	0.825192	0.7876	0.695006
841	C	0.74537	0.721151	0.373876
842	C	0.689422	0.722105	0.376627
843	C	0.726582	0.683407	0.380795
844	H	0.737383	0.677012	0.410044
845	H	0.728517	0.67102	0.349773
846	H	0.699552	0.671986	0.388133
847	N	0.802893	0.72477	0.700828
848	N	0.729153	0.794271	0.368387
849	C	0.798042	0.550637	0.702204
850	C	0.762152	0.532165	0.698317
851	C	0.743567	0.996331	0.698396
852	C	0.760101	0.97704	0.368665
853	C	0.79636	0.994757	0.373021
854	H	0.717653	0.984438	0.695164
855	H	0.748859	0.544884	0.694993
856	C	0.815307	0.53151	0.373896
857	C	0.814354	0.97461	0.376647
858	H	0.797924	0.947107	0.373443
859	H	0.82689	0.979188	0.409986
860	H	0.833393	0.982314	0.349471
861	C	0.853052	0.550466	0.380822
862	H	0.859443	0.567665	0.410068
863	H	0.865441	0.564786	0.349797
864	H	0.864471	0.534858	0.388167
865	N	0.81169	0.585415	0.700835
866	N	0.742189	0.942175	0.368397
867	C	0.985823	0.754696	0.702204
868	C	0.004297	0.73728	0.698313
869	H	0.991576	0.711268	0.694989
870	C	0.004951	0.791089	0.373896
871	C	0.985993	0.809874	0.38084
872	H	0.968791	0.79906	0.410078
873	H	0.971674	0.807951	0.349814
874	H	0.001602	0.836901	0.388198
875	N	0.951043	0.733564	0.700835
876	C	0.698997	0.882216	0.699898
877	C	0.712386	0.837462	0.699898
878	N	0.722093	0.871249	0.699888
879	C	0.737287	0.827441	0.699771
880	C	0.709019	0.91714	0.699782
881	H	0.690498	0.923729	0.699
882	H	0.762397	0.845963	0.699
883	C	0.848389	0.648001	0.700471
884	N	0.881139	0.674643	0.700516
885	C	0.88846	0.70768	0.700475
886	N	0.861816	0.713787	0.700512
887	C	0.828782	0.688074	0.700468
888	N	0.822672	0.655322	0.700509
889	C	0.800882	0.693719	0.700948
890	C	0.84274	0.614457	0.700955
891	C	0.922005	0.735576	0.700958
892	H	0.923933	0.758857	0.700811
893	H	0.864092	0.612526	0.700821
894	H	0.777604	0.672368	0.700811
895	C	0.781761	0.738417	0.035525
896	C	0.799179	0.774307	0.031642
897	C	0.781929	0.792891	0.031713
898	C	0.746105	0.776358	0.701984
899	C	0.727563	0.7401	0.706334
900	H	0.795955	0.818809	0.028514
901	H	0.825192	0.7876	0.02834
902	C	0.74537	0.721151	0.707209
903	C	0.689422	0.722105	0.70996
904	C	0.726582	0.683407	0.714128
905	H	0.737383	0.677012	0.743377
906	H	0.728517	0.67102	0.683106
907	H	0.699552	0.671986	0.721466
908	N	0.802893	0.72477	0.03416
909	N	0.729153	0.794271	0.70172
910	C	0.798042	0.550637	0.035537
911	C	0.762152	0.532165	0.031651
912	C	0.743567	0.996331	0.031731
913	C	0.760101	0.97704	0.701998
914	C	0.79636	0.994757	0.706355
915	H	0.717653	0.984438	0.028498
916	H	0.748859	0.544884	0.028327
917	C	0.815307	0.53151	0.70723
918	C	0.814354	0.97461	0.709981
919	H	0.797924	0.947107	0.706777
920	H	0.82689	0.979188	0.743319
921	H	0.833393	0.982314	0.682804
922	C	0.853052	0.550466	0.714156
923	H	0.859443	0.567665	0.743401
924	H	0.865441	0.564786	0.68313
925	H	0.864471	0.534858	0.721501
926	N	0.81169	0.585415	0.034168
927	N	0.742189	0.942175	0.70173
928	C	0.985823	0.754696	0.035536
929	C	0.004297	0.73728	0.031646
930	H	0.991576	0.711268	0.028321
931	C	0.004951	0.791089	0.70723
932	C	0.985993	0.809874	0.714173
933	H	0.968791	0.79906	0.743412
934	H	0.971674	0.807951	0.683147
935	H	0.001602	0.836901	0.721531
936	N	0.951043	0.733564	0.034169
