data_C504H288N72_2018-02-15_10:36:38
#******************************************
#
# CIF file created by Zeo++
# Zeo++ is an open source package to
# analyze microporous materials
#
#*******************************************

_cell_length_a		44.3608   
_cell_length_b		44.3607   
_cell_length_c		29.7456   
_cell_angle_alpha		90   
_cell_angle_beta		90   
_cell_angle_gamma		120   

_symmetry_space_group_name_H-M		'P1'
_symmetry_Int_Tables_number		1
_symmetry_cell_setting		Monoclinic

loop_
_symmetry_equiv_pos_as_xyz
'+x,+y,+z'

loop_
_atom_site_label
_atom_site_type_symbol
_atom_site_fract_x
_atom_site_fract_y
_atom_site_fract_z
1	C	0.0822	0.292174	0.296893
2	C	0.045527	0.273836	0.297158
3	C	0.025498	0.263817	0.337583
4	C	0.045594	0.273865	0.044617
5	C	0.082266	0.292203	0.04478
6	H	0.034224	0.268177	0.075479
7	H	0.095211	0.298674	0.074889
8	H	0.095096	0.298624	0.266749
9	H	0.034105	0.268125	0.266329
10	C	0.0822	0.292174	0.630228
11	C	0.045527	0.273836	0.63049
12	C	0.025498	0.263817	0.670916
13	C	0.045594	0.273865	0.377952
14	C	0.082266	0.292203	0.378113
15	H	0.034224	0.268177	0.40881
16	H	0.095211	0.298674	0.408222
17	H	0.095096	0.298624	0.600082
18	H	0.034105	0.268125	0.599662
19	C	0.0822	0.292174	0.963561
20	C	0.045527	0.273836	0.963824
21	C	0.025498	0.263817	0.00425
22	C	0.045594	0.273865	0.711282
23	C	0.082266	0.292203	0.711447
24	H	0.034224	0.268177	0.742144
25	H	0.095211	0.298674	0.741555
26	H	0.095096	0.298624	0.933416
27	H	0.034105	0.268125	0.932996
28	C	0.0822	0.792176	0.296893
29	C	0.045527	0.773838	0.297158
30	C	0.025498	0.763819	0.337583
31	C	0.045596	0.773866	0.044617
32	C	0.082266	0.792204	0.04478
33	H	0.034224	0.768179	0.075479
34	H	0.095211	0.798675	0.074889
35	H	0.095095	0.798623	0.266749
36	H	0.034106	0.768127	0.266329
37	C	0.0822	0.792176	0.630228
38	C	0.045527	0.773838	0.63049
39	C	0.025498	0.763819	0.670916
40	C	0.045596	0.773866	0.377952
41	C	0.082266	0.792204	0.378113
42	H	0.034224	0.768179	0.40881
43	H	0.095211	0.798675	0.408222
44	H	0.095095	0.798623	0.600082
45	H	0.034106	0.768127	0.599662
46	C	0.0822	0.792176	0.963561
47	C	0.045527	0.773838	0.963824
48	C	0.025498	0.763819	0.00425
49	C	0.045596	0.773866	0.711282
50	C	0.082266	0.792204	0.711447
51	H	0.034224	0.768179	0.742144
52	H	0.095211	0.798675	0.741555
53	H	0.095095	0.798623	0.933416
54	H	0.034106	0.768127	0.932996
55	N	0.155446	0.355247	0.004105
56	C	0.137591	0.319867	0.004099
57	N	0.155444	0.302341	0.004105
58	C	0.100969	0.301558	0.337479
59	N	0.155446	0.355247	0.337438
60	C	0.137591	0.319867	0.337432
61	N	0.155444	0.302341	0.337438
62	C	0.100969	0.301558	0.670812
63	N	0.155446	0.355247	0.670772
64	C	0.137591	0.319867	0.670765
65	N	0.155444	0.302341	0.670772
66	C	0.100969	0.301558	0.004146
67	N	0.155446	0.855246	0.004105
68	C	0.137593	0.819869	0.004099
69	N	0.155445	0.802343	0.004105
70	C	0.100969	0.801557	0.337479
71	N	0.155446	0.855246	0.337438
72	C	0.137593	0.819869	0.337432
73	N	0.155445	0.802343	0.337438
74	C	0.100969	0.801557	0.670812
75	N	0.155446	0.855246	0.670772
76	C	0.137593	0.819869	0.670765
77	N	0.155445	0.802343	0.670772
78	C	0.100969	0.801557	0.004146
79	C	0.190824	0.373098	0.004099
80	C	0.190822	0.319865	0.004099
81	C	0.190824	0.373098	0.337432
82	C	0.190822	0.319865	0.337432
83	C	0.190824	0.373098	0.670765
84	C	0.190822	0.319865	0.670765
85	C	0.190824	0.8731	0.004099
86	C	0.190823	0.819866	0.004099
87	C	0.190824	0.8731	0.337432
88	C	0.190823	0.819866	0.337432
89	C	0.190824	0.8731	0.670765
90	C	0.190823	0.819866	0.670765
91	N	0.208348	0.355244	0.004105
92	C	0.322006	0.135455	0.004454
93	N	0.357384	0.153307	0.004447
94	C	0.37524	0.188686	0.004454
95	N	0.357387	0.206213	0.004447
96	C	0.322007	0.188689	0.004454
97	N	0.304482	0.15331	0.004447
98	C	0.209135	0.301553	0.337479
99	C	0.218518	0.292166	0.296894
100	C	0.236856	0.273831	0.297159
101	C	0.246874	0.26382	0.337583
102	C	0.236826	0.273867	0.044617
103	C	0.218488	0.292203	0.04478
104	H	0.242515	0.268188	0.075478
105	H	0.212017	0.298676	0.074889
106	C	0.265958	0.244737	0.004304
107	C	0.276008	0.23469	0.29727
108	C	0.294346	0.216355	0.297107
109	C	0.303697	0.207003	0.004409
110	C	0.294311	0.216387	0.044993
111	C	0.275973	0.234722	0.044728
112	H	0.270323	0.240375	0.266409
113	H	0.300818	0.209883	0.266998
114	H	0.300758	0.209938	0.075137
115	H	0.212069	0.298611	0.26675
116	H	0.27026	0.240431	0.075557
117	H	0.242566	0.26812	0.26633
118	C	0.209136	0.409722	0.337479
119	C	0.218523	0.428492	0.296894
120	C	0.23686	0.465166	0.297159
121	C	0.246873	0.485196	0.337583
122	C	0.236822	0.465098	0.044617
123	C	0.218485	0.428425	0.04478
124	H	0.242505	0.476468	0.075478
125	H	0.212011	0.41548	0.074889
126	C	0.265956	0.02336	0.004304
127	C	0.276004	0.043456	0.297269
128	C	0.294341	0.080129	0.297107
129	C	0.303694	0.098831	0.004409
130	C	0.294309	0.080062	0.044993
131	C	0.275973	0.043389	0.044728
132	H	0.270317	0.032086	0.266408
133	H	0.300813	0.093073	0.266997
134	H	0.300757	0.092957	0.075138
135	H	0.212076	0.415597	0.266749
136	H	0.270262	0.031968	0.075557
137	H	0.242574	0.476588	0.266329
138	C	0.487333	0.244734	0.004304
139	C	0.467237	0.234684	0.297269
140	C	0.430564	0.216347	0.297106
141	C	0.411863	0.206996	0.004409
142	C	0.430631	0.216382	0.044993
143	C	0.467304	0.23472	0.044728
144	H	0.478607	0.240369	0.266408
145	H	0.417619	0.209874	0.266997
146	H	0.417735	0.209935	0.075138
147	H	0.478724	0.240432	0.075558
148	N	0.208348	0.355244	0.337438
149	C	0.322006	0.135455	0.337788
150	N	0.357384	0.153307	0.337781
151	C	0.37524	0.188686	0.337788
152	N	0.357387	0.206213	0.337781
153	C	0.322007	0.188689	0.337788
154	N	0.304482	0.15331	0.337781
155	C	0.209135	0.301553	0.670812
156	C	0.218518	0.292166	0.630228
157	C	0.236856	0.273831	0.630494
158	C	0.246874	0.26382	0.670916
159	C	0.236826	0.273867	0.377949
160	C	0.218488	0.292203	0.378113
161	H	0.242515	0.268188	0.40881
162	H	0.212017	0.298676	0.408222
163	C	0.265958	0.244737	0.337637
164	C	0.276008	0.23469	0.630605
165	C	0.294346	0.216355	0.63044
166	C	0.303697	0.207003	0.337741
167	C	0.294311	0.216387	0.378325
168	C	0.275973	0.234722	0.378059
169	H	0.270323	0.240375	0.599743
170	H	0.300818	0.209883	0.600331
171	H	0.300758	0.209938	0.408471
172	H	0.212069	0.298611	0.600082
173	H	0.27026	0.240431	0.408891
174	H	0.242566	0.26812	0.599662
175	C	0.209136	0.409722	0.670812
176	C	0.218523	0.428492	0.630228
177	C	0.23686	0.465166	0.63049
178	C	0.246873	0.485196	0.670916
179	C	0.236822	0.465098	0.377952
180	C	0.218485	0.428425	0.378113
181	H	0.242505	0.476468	0.40881
182	H	0.212011	0.41548	0.408222
183	C	0.265956	0.02336	0.337637
184	C	0.276004	0.043456	0.630601
185	C	0.294341	0.080129	0.63044
186	C	0.303694	0.098831	0.337741
187	C	0.294309	0.080062	0.378325
188	C	0.275973	0.043389	0.378059
189	H	0.270317	0.032086	0.599743
190	H	0.300813	0.093073	0.600331
191	H	0.300757	0.092957	0.408471
192	H	0.212076	0.415597	0.600082
193	H	0.270262	0.031968	0.408891
194	H	0.242574	0.476588	0.599662
195	C	0.487333	0.244734	0.337637
196	C	0.467237	0.234684	0.630601
197	C	0.430564	0.216347	0.63044
198	C	0.411863	0.206996	0.337741
199	C	0.430631	0.216382	0.378325
200	C	0.467304	0.23472	0.378063
201	H	0.478607	0.240369	0.599743
202	H	0.417619	0.209874	0.600331
203	H	0.417735	0.209935	0.408471
204	H	0.478724	0.240432	0.408891
205	N	0.208348	0.355244	0.670772
206	C	0.322006	0.135455	0.671121
207	N	0.357384	0.153307	0.671115
208	C	0.37524	0.188686	0.671121
209	N	0.357387	0.206213	0.671115
210	C	0.322007	0.188689	0.671121
211	N	0.304482	0.15331	0.671115
212	C	0.209135	0.301553	0.004146
213	C	0.218518	0.292166	0.963561
214	C	0.236856	0.273831	0.963824
215	C	0.246874	0.26382	0.00425
216	C	0.236826	0.273867	0.711282
217	C	0.218488	0.292203	0.711447
218	H	0.242515	0.268188	0.742144
219	H	0.212017	0.298676	0.741555
220	C	0.265958	0.244737	0.67097
221	C	0.276008	0.23469	0.963935
222	C	0.294346	0.216355	0.963773
223	C	0.303697	0.207003	0.671074
224	C	0.294311	0.216387	0.711659
225	C	0.275973	0.234722	0.711393
226	H	0.270323	0.240375	0.933076
227	H	0.300818	0.209883	0.933665
228	H	0.300758	0.209938	0.741804
229	H	0.212069	0.298611	0.933416
230	H	0.27026	0.240431	0.742224
231	H	0.242566	0.26812	0.932996
232	C	0.209136	0.409722	0.004146
233	C	0.218523	0.428492	0.963561
234	C	0.23686	0.465166	0.963824
235	C	0.246873	0.485196	0.00425
236	C	0.236822	0.465098	0.711282
237	C	0.218485	0.428425	0.711447
238	H	0.242505	0.476468	0.742144
239	H	0.212011	0.41548	0.741555
240	C	0.265956	0.02336	0.67097
241	C	0.276004	0.043456	0.963935
242	C	0.294341	0.080129	0.963773
243	C	0.303694	0.098831	0.671074
244	C	0.294309	0.080062	0.711659
245	C	0.275973	0.043389	0.711393
246	H	0.270317	0.032086	0.933076
247	H	0.300813	0.093073	0.933665
248	H	0.300757	0.092957	0.741804
249	H	0.212076	0.415597	0.933416
250	H	0.270262	0.031968	0.742224
251	H	0.242574	0.476588	0.932996
252	C	0.487333	0.244734	0.67097
253	C	0.467237	0.234684	0.963935
254	C	0.430564	0.216347	0.963773
255	C	0.411863	0.206996	0.671074
256	C	0.430631	0.216382	0.711659
257	C	0.467304	0.23472	0.711393
258	H	0.478607	0.240369	0.933073
259	H	0.417619	0.209874	0.933665
260	H	0.417735	0.209935	0.741804
261	H	0.478724	0.240432	0.742224
262	N	0.208349	0.855246	0.004105
263	C	0.322006	0.635455	0.004454
264	N	0.357386	0.653309	0.004447
265	C	0.375239	0.688686	0.004454
266	N	0.357388	0.706215	0.004447
267	C	0.322008	0.688689	0.004454
268	N	0.304483	0.653312	0.004447
269	C	0.209134	0.801551	0.337479
270	C	0.218518	0.792165	0.296894
271	C	0.236857	0.773832	0.297159
272	C	0.246874	0.763819	0.337583
273	C	0.236827	0.773869	0.044617
274	C	0.218489	0.792204	0.04478
275	H	0.242515	0.768186	0.075478
276	H	0.212018	0.798678	0.074889
277	C	0.265959	0.744739	0.004304
278	C	0.276009	0.734691	0.29727
279	C	0.294346	0.716356	0.297107
280	C	0.303697	0.707003	0.004409
281	C	0.294311	0.716387	0.044993
282	C	0.275974	0.734723	0.044728
283	H	0.270324	0.740376	0.266409
284	H	0.300818	0.709882	0.266998
285	H	0.300759	0.70994	0.075137
286	H	0.212069	0.798613	0.26675
287	H	0.270261	0.740431	0.075557
288	H	0.242566	0.768119	0.26633
289	C	0.209136	0.909724	0.337479
290	C	0.218523	0.928494	0.296894
291	C	0.236861	0.965164	0.297159
292	C	0.246873	0.985194	0.337583
293	C	0.236824	0.965099	0.044617
294	C	0.218485	0.928426	0.04478
295	H	0.242506	0.976469	0.075478
296	H	0.212012	0.915481	0.074889
297	C	0.265957	0.52336	0.004304
298	C	0.276004	0.543455	0.297269
299	C	0.294342	0.580129	0.297107
300	C	0.303694	0.598831	0.004409
301	C	0.29431	0.580061	0.044993
302	C	0.275973	0.54339	0.044728
303	H	0.270317	0.532086	0.266408
304	H	0.300814	0.593074	0.266997
305	H	0.300759	0.592959	0.075138
306	H	0.212078	0.915598	0.266749
307	H	0.270263	0.531969	0.075557
308	H	0.242574	0.976586	0.266329
309	C	0.487332	0.744734	0.004304
310	C	0.467238	0.734686	0.297269
311	C	0.430565	0.716348	0.297106
312	C	0.411863	0.706998	0.004409
313	C	0.430631	0.716382	0.044993
314	C	0.467304	0.73472	0.044728
315	H	0.478607	0.740371	0.266408
316	H	0.417619	0.709874	0.266997
317	H	0.417735	0.709934	0.075138
318	H	0.478725	0.740433	0.075558
319	N	0.208349	0.855246	0.337438
320	C	0.322006	0.635455	0.337788
321	N	0.357386	0.653309	0.337781
322	C	0.375239	0.688686	0.337788
323	N	0.357388	0.706215	0.337781
324	C	0.322008	0.688689	0.337788
325	N	0.304483	0.653312	0.337781
326	C	0.209134	0.801551	0.670812
327	C	0.218518	0.792165	0.630228
328	C	0.236857	0.773832	0.630494
329	C	0.246874	0.763819	0.670916
330	C	0.236827	0.773869	0.377949
331	C	0.218489	0.792204	0.378113
332	H	0.242515	0.768186	0.40881
333	H	0.212018	0.798678	0.408222
334	C	0.265959	0.744739	0.337637
335	C	0.276009	0.734691	0.630605
336	C	0.294346	0.716356	0.63044
337	C	0.303697	0.707003	0.337741
338	C	0.294311	0.716387	0.378325
339	C	0.275974	0.734723	0.378059
340	H	0.270324	0.740376	0.599743
341	H	0.300818	0.709882	0.600331
342	H	0.300759	0.70994	0.408471
343	H	0.212069	0.798613	0.600082
344	H	0.270261	0.740431	0.408891
345	H	0.242566	0.768119	0.599662
346	C	0.209136	0.909724	0.670812
347	C	0.218523	0.928494	0.630228
348	C	0.236861	0.965164	0.63049
349	C	0.246873	0.985194	0.670916
350	C	0.236824	0.965099	0.377952
351	C	0.218485	0.928426	0.378113
352	H	0.242506	0.976469	0.40881
353	H	0.212012	0.915481	0.408222
354	C	0.265957	0.52336	0.337637
355	C	0.276004	0.543455	0.630601
356	C	0.294342	0.580129	0.63044
357	C	0.303694	0.598831	0.337741
358	C	0.29431	0.580061	0.378325
359	C	0.275973	0.54339	0.378063
360	H	0.270317	0.532086	0.599743
361	H	0.300814	0.593074	0.600331
362	H	0.300759	0.592959	0.408471
363	H	0.212078	0.915598	0.600082
364	H	0.270263	0.531969	0.408891
365	H	0.242574	0.976586	0.599662
366	C	0.487332	0.744734	0.337637
367	C	0.467238	0.734686	0.630601
368	C	0.430565	0.716348	0.63044
369	C	0.411863	0.706998	0.337741
370	C	0.430631	0.716382	0.378325
371	C	0.467304	0.73472	0.378063
372	H	0.478607	0.740371	0.599743
373	H	0.417619	0.709874	0.600331
374	H	0.417735	0.709934	0.408471
375	H	0.478725	0.740433	0.408891
376	N	0.208349	0.855246	0.670772
377	C	0.322006	0.635455	0.671121
378	N	0.357386	0.653309	0.671115
379	C	0.375239	0.688686	0.671121
380	N	0.357388	0.706215	0.671115
381	C	0.322008	0.688689	0.671121
382	N	0.304483	0.653312	0.671115
383	C	0.209134	0.801551	0.004146
384	C	0.218518	0.792165	0.963561
385	C	0.236857	0.773832	0.963824
386	C	0.246874	0.763819	0.00425
387	C	0.236827	0.773869	0.711282
388	C	0.218489	0.792204	0.711447
389	H	0.242515	0.768186	0.742144
390	H	0.212018	0.798678	0.741555
391	C	0.265959	0.744739	0.67097
392	C	0.276009	0.734691	0.963935
393	C	0.294346	0.716356	0.963773
394	C	0.303697	0.707003	0.671074
395	C	0.294311	0.716387	0.711659
396	C	0.275974	0.734723	0.711393
397	H	0.270324	0.740376	0.933076
398	H	0.300818	0.709882	0.933665
399	H	0.300759	0.70994	0.741804
400	H	0.212069	0.798613	0.933416
401	H	0.270261	0.740431	0.742224
402	H	0.242566	0.768119	0.932996
403	C	0.209136	0.909724	0.004146
404	C	0.218523	0.928494	0.963561
405	C	0.236861	0.965164	0.963824
406	C	0.246873	0.985194	0.00425
407	C	0.236824	0.965099	0.711282
408	C	0.218485	0.928426	0.711447
409	H	0.242506	0.976469	0.742144
410	H	0.212012	0.915481	0.741555
411	C	0.265957	0.52336	0.67097
412	C	0.276004	0.543455	0.963935
413	C	0.294342	0.580129	0.963773
414	C	0.303694	0.598831	0.671074
415	C	0.29431	0.580061	0.711659
416	C	0.275973	0.54339	0.711393
417	H	0.270317	0.532086	0.933076
418	H	0.300814	0.593074	0.933665
419	H	0.300759	0.592959	0.741804
420	H	0.212078	0.915598	0.933416
421	H	0.270263	0.531969	0.742224
422	H	0.242574	0.976586	0.932996
423	C	0.487332	0.744734	0.67097
424	C	0.467238	0.734686	0.963935
425	C	0.430565	0.716348	0.963773
426	C	0.411863	0.706998	0.671074
427	C	0.430631	0.716382	0.711659
428	C	0.467304	0.73472	0.711393
429	H	0.478607	0.740371	0.933073
430	H	0.417619	0.709874	0.933665
431	H	0.417735	0.709934	0.741804
432	H	0.478725	0.740433	0.742224
433	C	0.690823	0.373098	0.004099
434	N	0.655446	0.355247	0.004105
435	C	0.637592	0.319867	0.004099
436	N	0.655442	0.302341	0.004105
437	C	0.690822	0.319865	0.004099
438	N	0.708348	0.355244	0.004105
439	C	0.822006	0.135455	0.004454
440	N	0.857384	0.153307	0.004447
441	C	0.875237	0.188686	0.004454
442	N	0.857387	0.206213	0.004447
443	C	0.822007	0.188689	0.004454
444	N	0.804482	0.15331	0.004447
445	C	0.709134	0.301553	0.337479
446	C	0.718519	0.292166	0.296894
447	C	0.736855	0.273831	0.297159
448	C	0.746874	0.26382	0.337583
449	C	0.736826	0.273867	0.044617
450	C	0.718487	0.292203	0.04478
451	H	0.742514	0.268188	0.075478
452	H	0.712017	0.298676	0.074889
453	C	0.765957	0.244737	0.004304
454	C	0.776008	0.23469	0.29727
455	C	0.794346	0.216355	0.297107
456	C	0.803696	0.207003	0.004409
457	C	0.794311	0.216387	0.044993
458	C	0.775972	0.234722	0.044728
459	H	0.770322	0.240375	0.266409
460	H	0.800817	0.209883	0.266998
461	H	0.800757	0.209938	0.075137
462	H	0.712068	0.298611	0.26675
463	H	0.77026	0.240431	0.075557
464	H	0.742566	0.26812	0.26633
465	C	0.709135	0.409722	0.337479
466	C	0.718522	0.428492	0.296894
467	C	0.736859	0.465166	0.297159
468	C	0.746872	0.485196	0.337583
469	C	0.736821	0.465098	0.044617
470	C	0.718484	0.428425	0.04478
471	H	0.742506	0.476468	0.075478
472	H	0.71201	0.41548	0.074889
473	C	0.765956	0.02336	0.004304
474	C	0.776004	0.043456	0.297269
475	C	0.794341	0.080129	0.297107
476	C	0.803694	0.098831	0.004409
477	C	0.794309	0.080062	0.044993
478	C	0.775971	0.043389	0.044728
479	H	0.770317	0.032086	0.266408
480	H	0.800813	0.093073	0.266997
481	H	0.800757	0.092957	0.075138
482	H	0.712075	0.415597	0.266749
483	H	0.770262	0.031968	0.075557
484	H	0.742572	0.476588	0.266329
485	C	0.600967	0.301558	0.337479
486	C	0.5822	0.292174	0.296893
487	C	0.545527	0.273836	0.297158
488	C	0.525497	0.263817	0.337583
489	C	0.545593	0.273865	0.044617
490	C	0.582266	0.292203	0.04478
491	H	0.534223	0.268177	0.075479
492	H	0.59521	0.298674	0.074889
493	C	0.987331	0.244734	0.004304
494	C	0.967237	0.234684	0.297269
495	C	0.930564	0.216347	0.297106
496	C	0.911863	0.206996	0.004409
497	C	0.930631	0.216382	0.044993
498	C	0.967304	0.23472	0.044728
499	H	0.978605	0.240369	0.266408
500	H	0.917619	0.209874	0.266997
501	H	0.917735	0.209935	0.075138
502	H	0.595095	0.298624	0.266749
503	H	0.978724	0.240432	0.075558
504	H	0.534105	0.268125	0.266329
505	C	0.690823	0.373098	0.337432
506	N	0.655446	0.355247	0.337438
507	C	0.637592	0.319867	0.337432
508	N	0.655442	0.302341	0.337438
509	C	0.690822	0.319865	0.337432
510	N	0.708348	0.355244	0.337438
511	C	0.822006	0.135455	0.337788
512	N	0.857384	0.153307	0.337781
513	C	0.875237	0.188686	0.337788
514	N	0.857387	0.206213	0.337781
515	C	0.822007	0.188689	0.337788
516	N	0.804482	0.15331	0.337781
517	C	0.709134	0.301553	0.670812
518	C	0.718519	0.292166	0.630228
519	C	0.736855	0.273831	0.630494
520	C	0.746874	0.26382	0.670916
521	C	0.736826	0.273867	0.377949
522	C	0.718487	0.292203	0.378113
523	H	0.742514	0.268188	0.40881
524	H	0.712017	0.298676	0.408222
525	C	0.765957	0.244737	0.337637
526	C	0.776008	0.23469	0.630605
527	C	0.794346	0.216355	0.63044
528	C	0.803696	0.207003	0.337741
529	C	0.794311	0.216387	0.378325
530	C	0.775972	0.234722	0.378059
531	H	0.770322	0.240375	0.599743
532	H	0.800817	0.209883	0.600331
533	H	0.800757	0.209938	0.408471
534	H	0.712068	0.298611	0.600082
535	H	0.77026	0.240431	0.408891
536	H	0.742566	0.26812	0.599662
537	C	0.709135	0.409722	0.670812
538	C	0.718522	0.428492	0.630228
539	C	0.736859	0.465166	0.63049
540	C	0.746872	0.485196	0.670916
541	C	0.736821	0.465098	0.377952
542	C	0.718484	0.428425	0.378113
543	H	0.742506	0.476468	0.40881
544	H	0.71201	0.41548	0.408222
545	C	0.765956	0.02336	0.337637
546	C	0.776004	0.043456	0.630601
547	C	0.794341	0.080129	0.63044
548	C	0.803694	0.098831	0.337741
549	C	0.794309	0.080062	0.378325
550	C	0.775971	0.043389	0.378059
551	H	0.770317	0.032086	0.599743
552	H	0.800813	0.093073	0.600331
553	H	0.800757	0.092957	0.408471
554	H	0.712075	0.415597	0.600082
555	H	0.770262	0.031968	0.408891
556	H	0.742572	0.476588	0.599662
557	C	0.600967	0.301558	0.670812
558	C	0.5822	0.292174	0.630228
559	C	0.545527	0.273836	0.63049
560	C	0.525497	0.263817	0.670916
561	C	0.545593	0.273865	0.377952
562	C	0.582266	0.292203	0.378113
563	H	0.534223	0.268177	0.40881
564	H	0.59521	0.298674	0.408222
565	C	0.987331	0.244734	0.337637
566	C	0.967237	0.234684	0.630601
567	C	0.930564	0.216347	0.63044
568	C	0.911863	0.206996	0.337741
569	C	0.930631	0.216382	0.378325
570	C	0.967304	0.23472	0.378063
571	H	0.978605	0.240369	0.599743
572	H	0.917619	0.209874	0.600331
573	H	0.917735	0.209935	0.408471
574	H	0.595095	0.298624	0.600082
575	H	0.978724	0.240432	0.408891
576	H	0.534105	0.268125	0.599662
577	C	0.690823	0.373098	0.670765
578	N	0.655446	0.355247	0.670772
579	C	0.637592	0.319867	0.670765
580	N	0.655442	0.302341	0.670772
581	C	0.690822	0.319865	0.670765
582	N	0.708348	0.355244	0.670772
583	C	0.822006	0.135455	0.671121
584	N	0.857384	0.153307	0.671115
585	C	0.875237	0.188686	0.671121
586	N	0.857387	0.206213	0.671115
587	C	0.822007	0.188689	0.671121
588	N	0.804482	0.15331	0.671115
589	C	0.709134	0.301553	0.004146
590	C	0.718519	0.292166	0.963561
591	C	0.736855	0.273831	0.963824
592	C	0.746874	0.26382	0.00425
593	C	0.736826	0.273867	0.711282
594	C	0.718487	0.292203	0.711447
595	H	0.742514	0.268188	0.742144
596	H	0.712017	0.298676	0.741555
597	C	0.765957	0.244737	0.67097
598	C	0.776008	0.23469	0.963935
599	C	0.794346	0.216355	0.963773
600	C	0.803696	0.207003	0.671074
601	C	0.794311	0.216387	0.711659
602	C	0.775972	0.234722	0.711393
603	H	0.770322	0.240375	0.933076
604	H	0.800817	0.209883	0.933665
605	H	0.800757	0.209938	0.741804
606	H	0.712068	0.298611	0.933416
607	H	0.77026	0.240431	0.742224
608	H	0.742566	0.26812	0.932996
609	C	0.709135	0.409722	0.004146
610	C	0.718522	0.428492	0.963561
611	C	0.736859	0.465166	0.963824
612	C	0.746872	0.485196	0.00425
613	C	0.736821	0.465098	0.711282
614	C	0.718484	0.428425	0.711447
615	H	0.742506	0.476468	0.742144
616	H	0.71201	0.41548	0.741555
617	C	0.765956	0.02336	0.67097
618	C	0.776004	0.043456	0.963935
619	C	0.794341	0.080129	0.963773
620	C	0.803694	0.098831	0.671074
621	C	0.794309	0.080062	0.711659
622	C	0.775971	0.043389	0.711393
623	H	0.770317	0.032086	0.933076
624	H	0.800813	0.093073	0.933665
625	H	0.800757	0.092957	0.741804
626	H	0.712075	0.415597	0.933416
627	H	0.770262	0.031968	0.742224
628	H	0.742572	0.476588	0.932996
629	C	0.600967	0.301558	0.004146
630	C	0.5822	0.292174	0.963561
631	C	0.545527	0.273836	0.963824
632	C	0.525497	0.263817	0.00425
633	C	0.545593	0.273865	0.711282
634	C	0.582266	0.292203	0.711447
635	H	0.534223	0.268177	0.742144
636	H	0.59521	0.298674	0.741555
637	C	0.987331	0.244734	0.67097
638	C	0.967237	0.234684	0.963935
639	C	0.930564	0.216347	0.963773
640	C	0.911863	0.206996	0.671074
641	C	0.930631	0.216382	0.711659
642	C	0.967304	0.23472	0.711393
643	H	0.978605	0.240369	0.933073
644	H	0.917619	0.209874	0.933665
645	H	0.917735	0.209935	0.741804
646	H	0.595095	0.298624	0.933416
647	H	0.978724	0.240432	0.742224
648	H	0.534105	0.268125	0.932996
649	C	0.690824	0.8731	0.004099
650	N	0.655446	0.855246	0.004105
651	C	0.637593	0.819869	0.004099
652	N	0.655445	0.802343	0.004105
653	C	0.690823	0.819866	0.004099
654	N	0.708348	0.855246	0.004105
655	C	0.822006	0.635455	0.004454
656	N	0.857384	0.653309	0.004447
657	C	0.87524	0.688686	0.004454
658	N	0.857388	0.706215	0.004447
659	C	0.822007	0.688689	0.004454
660	N	0.804483	0.653312	0.004447
661	C	0.709134	0.801551	0.337479
662	C	0.718518	0.792165	0.296894
663	C	0.736856	0.773832	0.297159
664	C	0.746873	0.763819	0.337583
665	C	0.736827	0.773869	0.044617
666	C	0.718488	0.792204	0.04478
667	H	0.742516	0.768186	0.075478
668	H	0.712018	0.798678	0.074889
669	C	0.76596	0.744739	0.004304
670	C	0.776008	0.734691	0.29727
671	C	0.794347	0.716356	0.297107
672	C	0.803696	0.707003	0.004409
673	C	0.794311	0.716387	0.044993
674	C	0.775974	0.734723	0.044728
675	H	0.770323	0.740376	0.266409
676	H	0.800819	0.709882	0.266998
677	H	0.800757	0.70994	0.075137
678	H	0.712069	0.798613	0.26675
679	H	0.77026	0.740431	0.075557
680	H	0.742565	0.768119	0.26633
681	C	0.709136	0.909724	0.337479
682	C	0.718523	0.928494	0.296894
683	C	0.736858	0.965164	0.297159
684	C	0.746873	0.985194	0.337583
685	C	0.736821	0.965099	0.044617
686	C	0.718485	0.928426	0.04478
687	H	0.742506	0.976469	0.075478
688	H	0.71201	0.915481	0.074889
689	C	0.765957	0.52336	0.004304
690	C	0.776004	0.543455	0.297269
691	C	0.794341	0.580129	0.297107
692	C	0.803694	0.598831	0.004409
693	C	0.794309	0.580061	0.044993
694	C	0.775974	0.54339	0.044728
695	H	0.770317	0.532086	0.266408
696	H	0.800813	0.593074	0.266997
697	H	0.800758	0.592959	0.075138
698	H	0.712078	0.915598	0.266749
699	H	0.770263	0.531969	0.075557
700	H	0.742572	0.976586	0.266329
701	C	0.600968	0.801557	0.337479
702	C	0.5822	0.792176	0.296893
703	C	0.545528	0.773838	0.297158
704	C	0.525498	0.763819	0.337583
705	C	0.545594	0.773866	0.044617
706	C	0.582266	0.792204	0.04478
707	H	0.534225	0.768179	0.075479
708	H	0.595211	0.798675	0.074889
709	C	0.987331	0.744734	0.004304
710	C	0.967238	0.734686	0.297269
711	C	0.930565	0.716348	0.297106
712	C	0.911864	0.706998	0.004409
713	C	0.930631	0.716382	0.044993
714	C	0.967304	0.73472	0.044728
715	H	0.978608	0.740371	0.266408
716	H	0.917619	0.709874	0.266997
717	H	0.917734	0.709934	0.075138
718	H	0.595095	0.798623	0.266749
719	H	0.978725	0.740433	0.075558
720	H	0.534106	0.768127	0.266329
721	C	0.690824	0.8731	0.337432
722	N	0.655446	0.855246	0.337438
723	C	0.637593	0.819869	0.337432
724	N	0.655445	0.802343	0.337438
725	C	0.690823	0.819866	0.337432
726	N	0.708348	0.855246	0.337438
727	C	0.822006	0.635455	0.337788
728	N	0.857384	0.653309	0.337781
729	C	0.87524	0.688686	0.337788
730	N	0.857388	0.706215	0.337781
731	C	0.822007	0.688689	0.337788
732	N	0.804483	0.653312	0.337781
733	C	0.709134	0.801551	0.670812
734	C	0.718518	0.792165	0.630228
735	C	0.736856	0.773832	0.630494
736	C	0.746873	0.763819	0.670916
737	C	0.736827	0.773869	0.377949
738	C	0.718488	0.792204	0.378113
739	H	0.742516	0.768186	0.40881
740	H	0.712018	0.798678	0.408222
741	C	0.76596	0.744739	0.337637
742	C	0.776008	0.734691	0.630605
743	C	0.794347	0.716356	0.63044
744	C	0.803696	0.707003	0.337741
745	C	0.794311	0.716387	0.378325
746	C	0.775974	0.734723	0.378059
747	H	0.770323	0.740376	0.599743
748	H	0.800819	0.709882	0.600331
749	H	0.800757	0.70994	0.408471
750	H	0.712069	0.798613	0.600082
751	H	0.77026	0.740431	0.408891
752	H	0.742565	0.768119	0.599662
753	C	0.709136	0.909724	0.670812
754	C	0.718523	0.928494	0.630228
755	C	0.736858	0.965164	0.63049
756	C	0.746873	0.985194	0.670916
757	C	0.736821	0.965099	0.377952
758	C	0.718485	0.928426	0.378113
759	H	0.742506	0.976469	0.40881
760	H	0.71201	0.915481	0.408222
761	C	0.765957	0.52336	0.337637
762	C	0.776004	0.543455	0.630601
763	C	0.794341	0.580129	0.63044
764	C	0.803694	0.598831	0.337741
765	C	0.794309	0.580061	0.378325
766	C	0.775974	0.54339	0.378063
767	H	0.770317	0.532086	0.599743
768	H	0.800813	0.593074	0.600331
769	H	0.800758	0.592959	0.408471
770	H	0.712078	0.915598	0.600082
771	H	0.770263	0.531969	0.408891
772	H	0.742572	0.976586	0.599662
773	C	0.600968	0.801557	0.670812
774	C	0.5822	0.792176	0.630228
775	C	0.545528	0.773838	0.63049
776	C	0.525498	0.763819	0.670916
777	C	0.545594	0.773866	0.377952
778	C	0.582266	0.792204	0.378113
779	H	0.534225	0.768179	0.40881
780	H	0.595211	0.798675	0.408222
781	C	0.987331	0.744734	0.337637
782	C	0.967238	0.734686	0.630601
783	C	0.930565	0.716348	0.63044
784	C	0.911864	0.706998	0.337741
785	C	0.930631	0.716382	0.378325
786	C	0.967304	0.73472	0.378063
787	H	0.978608	0.740371	0.599743
788	H	0.917619	0.709874	0.600331
789	H	0.917734	0.709934	0.408471
790	H	0.595095	0.798623	0.600082
791	H	0.978725	0.740433	0.408891
792	H	0.534106	0.768127	0.599662
793	C	0.690824	0.8731	0.670765
794	N	0.655446	0.855246	0.670772
795	C	0.637593	0.819869	0.670765
796	N	0.655445	0.802343	0.670772
797	C	0.690823	0.819866	0.670765
798	N	0.708348	0.855246	0.670772
799	C	0.822006	0.635455	0.671121
800	N	0.857384	0.653309	0.671115
801	C	0.87524	0.688686	0.671121
802	N	0.857388	0.706215	0.671115
803	C	0.822007	0.688689	0.671121
804	N	0.804483	0.653312	0.671115
805	C	0.709134	0.801551	0.004146
806	C	0.718518	0.792165	0.963561
807	C	0.736856	0.773832	0.963824
808	C	0.746873	0.763819	0.00425
809	C	0.736827	0.773869	0.711282
810	C	0.718488	0.792204	0.711447
811	H	0.742516	0.768186	0.742144
812	H	0.712018	0.798678	0.741555
813	C	0.76596	0.744739	0.67097
814	C	0.776008	0.734691	0.963935
815	C	0.794347	0.716356	0.963773
816	C	0.803696	0.707003	0.671074
817	C	0.794311	0.716387	0.711659
818	C	0.775974	0.734723	0.711393
819	H	0.770323	0.740376	0.933076
820	H	0.800819	0.709882	0.933665
821	H	0.800757	0.70994	0.741804
822	H	0.712069	0.798613	0.933416
823	H	0.77026	0.740431	0.742224
824	H	0.742565	0.768119	0.932996
825	C	0.709136	0.909724	0.004146
826	C	0.718523	0.928494	0.963561
827	C	0.736858	0.965164	0.963824
828	C	0.746873	0.985194	0.00425
829	C	0.736821	0.965099	0.711282
830	C	0.718485	0.928426	0.711447
831	H	0.742506	0.976469	0.742144
832	H	0.71201	0.915481	0.741555
833	C	0.765957	0.52336	0.67097
834	C	0.776004	0.543455	0.963935
835	C	0.794341	0.580129	0.963773
836	C	0.803694	0.598831	0.671074
837	C	0.794309	0.580061	0.711659
838	C	0.775974	0.54339	0.711393
839	H	0.770317	0.532086	0.933076
840	H	0.800813	0.593074	0.933665
841	H	0.800758	0.592959	0.741804
842	H	0.712078	0.915598	0.933416
843	H	0.770263	0.531969	0.742224
844	H	0.742572	0.976586	0.932996
845	C	0.600968	0.801557	0.004146
846	C	0.5822	0.792176	0.963561
847	C	0.545528	0.773838	0.963824
848	C	0.525498	0.763819	0.00425
849	C	0.545594	0.773866	0.711282
850	C	0.582266	0.792204	0.711447
851	H	0.534225	0.768179	0.742144
852	H	0.595211	0.798675	0.741555
853	C	0.987331	0.744734	0.67097
854	C	0.967238	0.734686	0.963935
855	C	0.930565	0.716348	0.963773
856	C	0.911864	0.706998	0.671074
857	C	0.930631	0.716382	0.711659
858	C	0.967304	0.73472	0.711393
859	H	0.978608	0.740371	0.933073
860	H	0.917619	0.709874	0.933665
861	H	0.917734	0.709934	0.741804
862	H	0.595095	0.798623	0.933416
863	H	0.978725	0.740433	0.742224
864	H	0.534106	0.768127	0.932996
