data_C576H288N72O144_2018-02-15_10:39:02
#******************************************
#
# CIF file created by Zeo++
# Zeo++ is an open source package to
# analyze microporous materials
#
#*******************************************

_cell_length_a		44.5068   
_cell_length_b		44.5068   
_cell_length_c		29.7866   
_cell_angle_alpha		90   
_cell_angle_beta		90   
_cell_angle_gamma		120   

_symmetry_space_group_name_H-M		'P1'
_symmetry_Int_Tables_number		1
_symmetry_cell_setting		Monoclinic

loop_
_symmetry_equiv_pos_as_xyz
'+x,+y,+z'

loop_
_atom_site_label
_atom_site_type_symbol
_atom_site_fract_x
_atom_site_fract_y
_atom_site_fract_z
1	C	0.024277	0.262642	0.009291
2	C	0.042958	0.260159	0.046397
3	C	0.042851	0.283966	0.305846
4	H	0.029904	0.286223	0.27883
5	N	0.024542	0.238986	0.083451
6	O	0.031335	0.256498	0.118922
7	C	0.024277	0.262642	0.342624
8	C	0.042958	0.260159	0.379731
9	C	0.042851	0.283966	0.63918
10	H	0.029904	0.286223	0.612164
11	N	0.024542	0.238986	0.416784
12	O	0.031335	0.256498	0.452257
13	C	0.024277	0.262642	0.675958
14	C	0.042958	0.260159	0.713065
15	C	0.042851	0.283966	0.972514
16	H	0.029904	0.286223	0.945495
17	N	0.024542	0.238986	0.750119
18	O	0.031335	0.256498	0.785591
19	C	0.024276	0.762642	0.009291
20	C	0.042958	0.760159	0.046397
21	C	0.042852	0.783965	0.305846
22	H	0.029905	0.786225	0.278829
23	N	0.024541	0.738985	0.083451
24	O	0.031333	0.756498	0.118922
25	C	0.024276	0.762642	0.342624
26	C	0.042958	0.760159	0.379731
27	C	0.042852	0.783965	0.63918
28	H	0.029905	0.786225	0.612164
29	N	0.024541	0.738985	0.416784
30	O	0.031333	0.756498	0.452257
31	C	0.024276	0.762642	0.675958
32	C	0.042958	0.760159	0.713065
33	C	0.042852	0.783965	0.972514
34	H	0.029905	0.786225	0.945495
35	N	0.024541	0.738985	0.750119
36	O	0.031333	0.756498	0.785591
37	O	0.031434	0.215131	0.089383
38	O	0.031434	0.215131	0.422717
39	O	0.031434	0.215131	0.756051
40	O	0.031433	0.71513	0.089383
41	O	0.031433	0.71513	0.422717
42	O	0.031433	0.71513	0.756051
43	C	0.079739	0.278593	0.045426
44	C	0.098264	0.300023	0.008753
45	C	0.079343	0.302706	0.305788
46	H	0.093065	0.276637	0.072224
47	H	0.092011	0.317813	0.278585
48	C	0.079739	0.278593	0.378761
49	C	0.098264	0.300023	0.342086
50	C	0.079343	0.302706	0.639122
51	H	0.093065	0.276637	0.405558
52	H	0.092011	0.317813	0.611919
53	C	0.079739	0.278593	0.712091
54	C	0.098264	0.300023	0.675421
55	C	0.079343	0.302706	0.972457
56	H	0.093065	0.276637	0.738892
57	H	0.092011	0.317813	0.945253
58	C	0.079739	0.778592	0.045426
59	C	0.098264	0.800022	0.008753
60	C	0.079343	0.802705	0.305788
61	H	0.093064	0.776636	0.072224
62	H	0.092011	0.817812	0.278585
63	C	0.079739	0.778592	0.378761
64	C	0.098264	0.800022	0.342086
65	C	0.079343	0.802705	0.639122
66	H	0.093064	0.776636	0.405558
67	H	0.092011	0.817812	0.611919
68	C	0.079739	0.778592	0.712091
69	C	0.098264	0.800022	0.675421
70	C	0.079343	0.802705	0.972457
71	H	0.093064	0.776636	0.738892
72	H	0.092011	0.817812	0.945253
73	C	0.135143	0.318469	0.008422
74	C	0.153801	0.355152	0.008425
75	C	0.1538	0.300438	0.00842
76	H	0.140505	0.273848	0.00854
77	H	0.140505	0.368446	0.008541
78	C	0.135143	0.318469	0.341754
79	C	0.153801	0.355152	0.341757
80	C	0.1538	0.300438	0.341754
81	H	0.140505	0.273848	0.341875
82	H	0.140505	0.368446	0.341875
83	C	0.135143	0.318469	0.675088
84	C	0.153801	0.355152	0.675092
85	C	0.1538	0.300438	0.675088
86	H	0.140505	0.273848	0.675206
87	H	0.140505	0.368446	0.675209
88	C	0.135141	0.818469	0.008422
89	C	0.153802	0.855151	0.008425
90	C	0.153801	0.80044	0.00842
91	H	0.140506	0.773849	0.00854
92	H	0.140503	0.868445	0.008541
93	C	0.135141	0.818469	0.341754
94	C	0.153802	0.855151	0.341757
95	C	0.153801	0.80044	0.341754
96	H	0.140506	0.773849	0.341875
97	H	0.140503	0.868445	0.341875
98	C	0.135141	0.818469	0.675088
99	C	0.153802	0.855151	0.675092
100	C	0.153801	0.80044	0.675088
101	H	0.140506	0.773849	0.675206
102	H	0.140503	0.868445	0.675209
103	C	0.190489	0.373811	0.008424
104	C	0.208514	0.355152	0.008425
105	C	0.190484	0.318464	0.008422
106	H	0.235104	0.368448	0.008542
107	C	0.375825	0.188711	0.00793
108	C	0.35678	0.151979	0.007945
109	C	0.320049	0.133128	0.007932
110	C	0.302361	0.152172	0.007946
111	C	0.320242	0.188904	0.007931
112	C	0.356974	0.206592	0.007944
113	H	0.2758	0.138966	0.007951
114	H	0.370329	0.233153	0.007947
115	H	0.369987	0.138624	0.007949
116	C	0.301742	0.207592	0.00786
117	C	0.273146	0.198091	0.036772
118	C	0.255144	0.216581	0.036949
119	C	0.265013	0.245162	0.007996
120	C	0.293598	0.255177	0.311987
121	C	0.311519	0.236316	0.312355
122	H	0.331835	0.243625	0.290655
123	C	0.246311	0.263426	0.009292
124	C	0.248799	0.284594	0.046393
125	C	0.230365	0.302942	0.045422
126	C	0.20893	0.300031	0.008754
127	C	0.206242	0.278422	0.305793
128	C	0.224982	0.260671	0.305851
129	H	0.232327	0.318228	0.072217
130	H	0.191129	0.275978	0.278594
131	H	0.2655	0.177908	0.058774
132	H	0.222718	0.24546	0.278838
133	H	0.234665	0.208941	0.058476
134	N	0.304209	0.284316	0.283624
135	N	0.269979	0.287357	0.083443
136	O	0.252473	0.276644	0.118919
137	O	0.302649	0.276177	0.242947
138	O	0.334644	0.307775	0.292406
139	O	0.293836	0.318106	0.089364
140	C	0.301361	0.095941	0.007862
141	C	0.310864	0.076845	0.036771
142	C	0.292373	0.040354	0.036948
143	C	0.263791	0.021641	0.007998
144	C	0.253775	0.040211	0.311992
145	C	0.272634	0.076993	0.31236
146	H	0.265325	0.09	0.290661
147	C	0.245528	0.484676	0.009295
148	C	0.224362	0.465994	0.046399
149	C	0.206015	0.429213	0.045427
150	C	0.208921	0.410688	0.008756
151	C	0.230526	0.42961	0.305792
152	C	0.248279	0.466103	0.30585
153	H	0.190731	0.415888	0.072225
154	H	0.232967	0.416941	0.27859
155	H	0.331048	0.089383	0.058771
156	H	0.263485	0.479049	0.278834
157	H	0.300014	0.027514	0.058474
158	N	0.224634	0.021683	0.283632
159	N	0.221605	0.484412	0.083452
160	O	0.232322	0.477617	0.118925
161	O	0.23277	0.028262	0.242954
162	O	0.201175	0.52866	0.292418
163	O	0.190856	0.977518	0.089382
164	C	0.413012	0.207211	0.007859
165	C	0.432108	0.235809	0.036768
166	C	0.468599	0.253811	0.036945
167	C	0.487312	0.24394	0.007995
168	C	0.468743	0.215353	0.31199
169	C	0.431959	0.197432	0.312358
170	H	0.418951	0.177114	0.290659
171	H	0.41957	0.243456	0.058768
172	H	0.481439	0.274291	0.05847
173	N	0.487271	0.20474	0.283631
174	O	0.48069	0.206296	0.242952
175	O	0.980292	0.174305	0.292417
176	O	0.531435	0.215131	0.089383
177	C	0.190489	0.373811	0.341757
178	C	0.208514	0.355152	0.341757
179	C	0.190484	0.318464	0.341757
180	H	0.235104	0.368448	0.341875
181	C	0.375825	0.188711	0.341264
182	C	0.35678	0.151979	0.341277
183	C	0.320049	0.133128	0.341267
184	C	0.302361	0.152172	0.341281
185	C	0.320242	0.188904	0.341264
186	C	0.356974	0.206592	0.341277
187	H	0.2758	0.138966	0.341284
188	H	0.370329	0.233153	0.341281
189	H	0.369987	0.138624	0.341284
190	C	0.301742	0.207592	0.341193
191	C	0.273146	0.198091	0.370106
192	C	0.255144	0.216581	0.370284
193	C	0.265013	0.245162	0.341331
194	C	0.293598	0.255177	0.64532
195	C	0.311519	0.236316	0.645689
196	H	0.331835	0.243625	0.623988
197	C	0.246311	0.263426	0.342627
198	C	0.248799	0.284594	0.379728
199	C	0.230365	0.302942	0.378754
200	C	0.20893	0.300031	0.342086
201	C	0.206242	0.278422	0.639126
202	C	0.224982	0.260671	0.639186
203	H	0.232327	0.318228	0.405551
204	H	0.191129	0.275978	0.611926
205	H	0.2655	0.177908	0.392109
206	H	0.222718	0.24546	0.612171
207	H	0.234665	0.208941	0.39181
208	N	0.304209	0.284316	0.616958
209	N	0.269979	0.287357	0.416778
210	O	0.252473	0.276644	0.452253
211	O	0.302649	0.276177	0.576282
212	O	0.334644	0.307775	0.625741
213	O	0.293836	0.318106	0.422696
214	C	0.301361	0.095941	0.341197
215	C	0.310864	0.076845	0.370106
216	C	0.292373	0.040354	0.370284
217	C	0.263791	0.021641	0.341331
218	C	0.253775	0.040211	0.645327
219	C	0.272634	0.076993	0.645693
220	H	0.265325	0.09	0.623995
221	C	0.245528	0.484676	0.342627
222	C	0.224362	0.465994	0.379734
223	C	0.206015	0.429213	0.378761
224	C	0.208921	0.410688	0.34209
225	C	0.230526	0.42961	0.639126
226	C	0.248279	0.466103	0.639183
227	H	0.190731	0.415888	0.405558
228	H	0.232967	0.416941	0.611922
229	H	0.331048	0.089383	0.392106
230	H	0.263485	0.479049	0.612167
231	H	0.300014	0.027514	0.391807
232	N	0.224634	0.021683	0.616965
233	N	0.221605	0.484412	0.416784
234	O	0.232322	0.477617	0.452257
235	O	0.23277	0.028262	0.576289
236	O	0.201175	0.52866	0.625751
237	O	0.190856	0.977518	0.422717
238	C	0.413012	0.207211	0.341193
239	C	0.432108	0.235809	0.370102
240	C	0.468599	0.253811	0.370277
241	C	0.487312	0.24394	0.341328
242	C	0.468743	0.215353	0.645323
243	C	0.431959	0.197432	0.645693
244	H	0.418951	0.177114	0.623992
245	H	0.41957	0.243456	0.392102
246	H	0.481439	0.274291	0.391803
247	N	0.487271	0.20474	0.616965
248	O	0.48069	0.206296	0.576286
249	O	0.980292	0.174305	0.625751
250	O	0.531435	0.215131	0.422717
251	C	0.190489	0.373811	0.675092
252	C	0.208514	0.355152	0.675092
253	C	0.190484	0.318464	0.675088
254	H	0.235104	0.368448	0.675209
255	C	0.375825	0.188711	0.674598
256	C	0.35678	0.151979	0.674612
257	C	0.320049	0.133128	0.674598
258	C	0.302361	0.152172	0.674612
259	C	0.320242	0.188904	0.674598
260	C	0.356974	0.206592	0.674612
261	H	0.2758	0.138966	0.674618
262	H	0.370329	0.233153	0.674615
263	H	0.369987	0.138624	0.674615
264	C	0.301742	0.207592	0.674528
265	C	0.273146	0.198091	0.70344
266	C	0.255144	0.216581	0.703618
267	C	0.265013	0.245162	0.674662
268	C	0.293598	0.255177	0.978654
269	C	0.311519	0.236316	0.979023
270	H	0.331835	0.243625	0.957322
271	C	0.246311	0.263426	0.675958
272	C	0.248799	0.284594	0.713062
273	C	0.230365	0.302942	0.712088
274	C	0.20893	0.300031	0.675421
275	C	0.206242	0.278422	0.97246
276	C	0.224982	0.260671	0.972517
277	H	0.232327	0.318228	0.738885
278	H	0.191129	0.275978	0.94526
279	H	0.2655	0.177908	0.72544
280	H	0.222718	0.24546	0.945505
281	H	0.234665	0.208941	0.725144
282	N	0.304209	0.284316	0.950292
283	N	0.269979	0.287357	0.750109
284	O	0.252473	0.276644	0.785588
285	O	0.302649	0.276177	0.909613
286	O	0.334644	0.307775	0.959075
287	O	0.293836	0.318106	0.756031
288	C	0.301361	0.095941	0.674528
289	C	0.310864	0.076845	0.703437
290	C	0.292373	0.040354	0.703615
291	C	0.263791	0.021641	0.674665
292	C	0.253775	0.040211	0.978661
293	C	0.272634	0.076993	0.979027
294	H	0.265325	0.09	0.957329
295	C	0.245528	0.484676	0.675961
296	C	0.224362	0.465994	0.713065
297	C	0.206015	0.429213	0.712095
298	C	0.208921	0.410688	0.675424
299	C	0.230526	0.42961	0.97246
300	C	0.248279	0.466103	0.972517
301	H	0.190731	0.415888	0.738892
302	H	0.232967	0.416941	0.945257
303	H	0.331048	0.089383	0.72544
304	H	0.263485	0.479049	0.945502
305	H	0.300014	0.027514	0.725141
306	N	0.224634	0.021683	0.950299
307	N	0.221605	0.484412	0.750119
308	O	0.232322	0.477617	0.785591
309	O	0.23277	0.028262	0.909623
310	O	0.201175	0.52866	0.959085
311	O	0.190856	0.977518	0.756047
312	C	0.413012	0.207211	0.674524
313	C	0.432108	0.235809	0.703433
314	C	0.468599	0.253811	0.703611
315	C	0.487312	0.24394	0.674662
316	C	0.468743	0.215353	0.978657
317	C	0.431959	0.197432	0.979023
318	H	0.418951	0.177114	0.957326
319	H	0.41957	0.243456	0.725436
320	H	0.481439	0.274291	0.725138
321	N	0.487271	0.20474	0.950299
322	O	0.48069	0.206296	0.90962
323	O	0.980292	0.174305	0.959085
324	O	0.531435	0.215131	0.756051
325	C	0.190489	0.87381	0.008424
326	C	0.208513	0.855151	0.008425
327	C	0.190484	0.818463	0.008422
328	H	0.235104	0.868448	0.008542
329	C	0.375825	0.688711	0.00793
330	C	0.356781	0.651979	0.007945
331	C	0.320049	0.633127	0.007932
332	C	0.30236	0.652171	0.007946
333	C	0.320241	0.688903	0.007931
334	C	0.356973	0.706591	0.007944
335	H	0.275799	0.638965	0.007951
336	H	0.370329	0.733153	0.007947
337	H	0.369986	0.638622	0.007949
338	C	0.301743	0.707593	0.00786
339	C	0.273145	0.698089	0.036772
340	C	0.255143	0.71658	0.036949
341	C	0.265012	0.74516	0.007996
342	C	0.293596	0.755175	0.311987
343	C	0.311519	0.736316	0.312355
344	H	0.331835	0.743624	0.290655
345	C	0.24631	0.763425	0.009292
346	C	0.248799	0.784593	0.046393
347	C	0.230365	0.802941	0.045422
348	C	0.20893	0.80003	0.008754
349	C	0.206241	0.778421	0.305793
350	C	0.224982	0.76067	0.305851
351	H	0.232328	0.81823	0.072217
352	H	0.191129	0.775977	0.278594
353	H	0.2655	0.677907	0.058774
354	H	0.222717	0.745459	0.278838
355	H	0.234665	0.708942	0.058476
356	N	0.304208	0.784315	0.283624
357	N	0.269978	0.787356	0.083443
358	O	0.252472	0.776644	0.118919
359	O	0.302649	0.776177	0.242947
360	O	0.334644	0.807774	0.292406
361	O	0.293835	0.818105	0.089364
362	C	0.301361	0.595941	0.007862
363	C	0.310863	0.576844	0.036771
364	C	0.292373	0.540353	0.036948
365	C	0.26379	0.521639	0.007998
366	C	0.253774	0.54021	0.311992
367	C	0.272634	0.576992	0.31236
368	H	0.265325	0.59	0.290661
369	C	0.245528	0.984676	0.009295
370	C	0.224362	0.965993	0.046399
371	C	0.206014	0.929212	0.045427
372	C	0.208921	0.910688	0.008756
373	C	0.230526	0.929609	0.305792
374	C	0.248278	0.966102	0.30585
375	H	0.19073	0.915887	0.072225
376	H	0.232965	0.91694	0.27859
377	H	0.331048	0.589383	0.058771
378	H	0.263485	0.979048	0.278834
379	H	0.300014	0.527513	0.058474
380	N	0.224634	0.521683	0.283632
381	N	0.221604	0.984411	0.083452
382	O	0.232321	0.977616	0.118925
383	O	0.232769	0.52826	0.242954
384	O	0.201175	0.028659	0.292418
385	O	0.190856	0.477518	0.089382
386	C	0.413013	0.707211	0.007859
387	C	0.432108	0.73581	0.036768
388	C	0.468599	0.75381	0.036945
389	C	0.487313	0.743941	0.007995
390	C	0.468742	0.715353	0.31199
391	C	0.431959	0.69743	0.312358
392	H	0.418952	0.677113	0.290659
393	H	0.41957	0.743456	0.058768
394	H	0.481439	0.774291	0.05847
395	N	0.487269	0.704739	0.283631
396	O	0.48069	0.706296	0.242952
397	O	0.980292	0.674304	0.292417
398	O	0.531434	0.71513	0.089383
399	C	0.190489	0.87381	0.341757
400	C	0.208513	0.855151	0.341757
401	C	0.190484	0.818463	0.341757
402	H	0.235104	0.868448	0.341875
403	C	0.375825	0.688711	0.341264
404	C	0.356781	0.651979	0.341277
405	C	0.320049	0.633127	0.341267
406	C	0.30236	0.652171	0.341281
407	C	0.320241	0.688903	0.341264
408	C	0.356973	0.706591	0.341277
409	H	0.275799	0.638965	0.341284
410	H	0.370329	0.733153	0.341281
411	H	0.369986	0.638622	0.341284
412	C	0.301743	0.707593	0.341193
413	C	0.273145	0.698089	0.370106
414	C	0.255143	0.71658	0.370284
415	C	0.265012	0.74516	0.341331
416	C	0.293596	0.755175	0.64532
417	C	0.311519	0.736316	0.645689
418	H	0.331835	0.743624	0.623988
419	C	0.24631	0.763425	0.342627
420	C	0.248799	0.784593	0.379728
421	C	0.230365	0.802941	0.378754
422	C	0.20893	0.80003	0.342086
423	C	0.206241	0.778421	0.639126
424	C	0.224982	0.76067	0.639186
425	H	0.232328	0.81823	0.405551
426	H	0.191129	0.775977	0.611926
427	H	0.2655	0.677907	0.392109
428	H	0.222717	0.745459	0.612171
429	H	0.234665	0.708942	0.39181
430	N	0.304208	0.784315	0.616958
431	N	0.269978	0.787356	0.416778
432	O	0.252472	0.776644	0.452253
433	O	0.302649	0.776177	0.576282
434	O	0.334644	0.807774	0.625741
435	O	0.293835	0.818105	0.422696
436	C	0.301361	0.595941	0.341197
437	C	0.310863	0.576844	0.370106
438	C	0.292373	0.540353	0.370284
439	C	0.26379	0.521639	0.341331
440	C	0.253774	0.54021	0.645327
441	C	0.272634	0.576992	0.645693
442	H	0.265325	0.59	0.623995
443	C	0.245528	0.984676	0.342627
444	C	0.224362	0.965993	0.379734
445	C	0.206014	0.929212	0.378761
446	C	0.208921	0.910688	0.34209
447	C	0.230526	0.929609	0.639126
448	C	0.248278	0.966102	0.639183
449	H	0.19073	0.915887	0.405558
450	H	0.232965	0.91694	0.611922
451	H	0.331048	0.589383	0.392106
452	H	0.263485	0.979048	0.612167
453	H	0.300014	0.527513	0.391807
454	N	0.224634	0.521683	0.616965
455	N	0.221604	0.984411	0.416784
456	O	0.232321	0.977616	0.452257
457	O	0.232769	0.52826	0.576289
458	O	0.201175	0.028659	0.625751
459	O	0.190856	0.477518	0.422717
460	C	0.413013	0.707211	0.341193
461	C	0.432108	0.73581	0.370102
462	C	0.468599	0.75381	0.370277
463	C	0.487313	0.743941	0.341328
464	C	0.468742	0.715353	0.645323
465	C	0.431959	0.69743	0.645693
466	H	0.418952	0.677113	0.623992
467	H	0.41957	0.743456	0.392102
468	H	0.481439	0.774291	0.391803
469	N	0.487269	0.704739	0.616965
470	O	0.48069	0.706296	0.576286
471	O	0.980292	0.674304	0.625751
472	O	0.531434	0.71513	0.422717
473	C	0.190489	0.87381	0.675092
474	C	0.208513	0.855151	0.675092
475	C	0.190484	0.818463	0.675088
476	H	0.235104	0.868448	0.675209
477	C	0.375825	0.688711	0.674598
478	C	0.356781	0.651979	0.674612
479	C	0.320049	0.633127	0.674598
480	C	0.30236	0.652171	0.674612
481	C	0.320241	0.688903	0.674598
482	C	0.356973	0.706591	0.674612
483	H	0.275799	0.638965	0.674618
484	H	0.370329	0.733153	0.674615
485	H	0.369986	0.638622	0.674615
486	C	0.301743	0.707593	0.674528
487	C	0.273145	0.698089	0.70344
488	C	0.255143	0.71658	0.703618
489	C	0.265012	0.74516	0.674662
490	C	0.293596	0.755175	0.978654
491	C	0.311519	0.736316	0.979023
492	H	0.331835	0.743624	0.957322
493	C	0.24631	0.763425	0.675958
494	C	0.248799	0.784593	0.713062
495	C	0.230365	0.802941	0.712088
496	C	0.20893	0.80003	0.675421
497	C	0.206241	0.778421	0.97246
498	C	0.224982	0.76067	0.972517
499	H	0.232328	0.81823	0.738885
500	H	0.191129	0.775977	0.94526
501	H	0.2655	0.677907	0.72544
502	H	0.222717	0.745459	0.945505
503	H	0.234665	0.708942	0.725144
504	N	0.304208	0.784315	0.950292
505	N	0.269978	0.787356	0.750109
506	O	0.252472	0.776644	0.785588
507	O	0.302649	0.776177	0.909613
508	O	0.334644	0.807774	0.959075
509	O	0.293835	0.818105	0.756031
510	C	0.301361	0.595941	0.674528
511	C	0.310863	0.576844	0.703437
512	C	0.292373	0.540353	0.703615
513	C	0.26379	0.521639	0.674665
514	C	0.253774	0.54021	0.978661
515	C	0.272634	0.576992	0.979027
516	H	0.265325	0.59	0.957329
517	C	0.245528	0.984676	0.675961
518	C	0.224362	0.965993	0.713065
519	C	0.206014	0.929212	0.712095
520	C	0.208921	0.910688	0.675424
521	C	0.230526	0.929609	0.97246
522	C	0.248278	0.966102	0.972517
523	H	0.19073	0.915887	0.738892
524	H	0.232965	0.91694	0.945257
525	H	0.331048	0.589383	0.72544
526	H	0.263485	0.979048	0.945502
527	H	0.300014	0.527513	0.725141
528	N	0.224634	0.521683	0.950299
529	N	0.221604	0.984411	0.750119
530	O	0.232321	0.977616	0.785591
531	O	0.232769	0.52826	0.909623
532	O	0.201175	0.028659	0.959085
533	O	0.190856	0.477518	0.756047
534	C	0.413013	0.707211	0.674524
535	C	0.432108	0.73581	0.703433
536	C	0.468599	0.75381	0.703611
537	C	0.487313	0.743941	0.674662
538	C	0.468742	0.715353	0.978657
539	C	0.431959	0.69743	0.979023
540	H	0.418952	0.677113	0.957326
541	H	0.41957	0.743456	0.725436
542	H	0.481439	0.774291	0.725138
543	N	0.487269	0.704739	0.950299
544	O	0.48069	0.706296	0.90962
545	O	0.980292	0.674304	0.959085
546	O	0.531434	0.71513	0.756051
547	C	0.635142	0.318469	0.008422
548	C	0.653802	0.355152	0.008425
549	C	0.690489	0.373811	0.008424
550	C	0.708513	0.355152	0.008425
551	C	0.690483	0.318464	0.008422
552	C	0.6538	0.300438	0.00842
553	H	0.735104	0.368448	0.008542
554	H	0.640505	0.273848	0.00854
555	H	0.640506	0.368446	0.008541
556	C	0.875825	0.188711	0.00793
557	C	0.85678	0.151979	0.007945
558	C	0.820049	0.133128	0.007932
559	C	0.802361	0.152172	0.007946
560	C	0.820242	0.188904	0.007931
561	C	0.856974	0.206592	0.007944
562	H	0.7758	0.138966	0.007951
563	H	0.870329	0.233153	0.007947
564	H	0.869987	0.138624	0.007949
565	C	0.801743	0.207592	0.00786
566	C	0.773147	0.198091	0.036772
567	C	0.755144	0.216581	0.036949
568	C	0.765013	0.245162	0.007996
569	C	0.793597	0.255177	0.311987
570	C	0.811519	0.236316	0.312355
571	H	0.831834	0.243625	0.290655
572	C	0.746311	0.263426	0.009292
573	C	0.7488	0.284594	0.046393
574	C	0.730367	0.302942	0.045422
575	C	0.70893	0.300031	0.008754
576	C	0.706241	0.278422	0.305793
577	C	0.724981	0.260671	0.305851
578	H	0.732328	0.318228	0.072217
579	H	0.691129	0.275978	0.278594
580	H	0.7655	0.177908	0.058774
581	H	0.722719	0.24546	0.278838
582	H	0.734664	0.208941	0.058476
583	N	0.80421	0.284316	0.283624
584	N	0.769978	0.287357	0.083443
585	O	0.752473	0.276644	0.118919
586	O	0.80265	0.276177	0.242947
587	O	0.834644	0.307775	0.292406
588	O	0.793835	0.318106	0.089364
589	C	0.801361	0.095941	0.007862
590	C	0.810864	0.076845	0.036771
591	C	0.792373	0.040354	0.036948
592	C	0.763791	0.021641	0.007998
593	C	0.753775	0.040211	0.311992
594	C	0.772636	0.076993	0.31236
595	H	0.765326	0.09	0.290661
596	C	0.745529	0.484676	0.009295
597	C	0.724362	0.465994	0.046399
598	C	0.706014	0.429213	0.045427
599	C	0.708921	0.410688	0.008756
600	C	0.730526	0.42961	0.305792
601	C	0.748278	0.466103	0.30585
602	H	0.690731	0.415888	0.072225
603	H	0.732968	0.416941	0.27859
604	H	0.831048	0.089383	0.058771
605	H	0.763485	0.479049	0.278834
606	H	0.800014	0.027514	0.058474
607	N	0.724634	0.021683	0.283632
608	N	0.721605	0.484412	0.083452
609	O	0.732322	0.477617	0.118925
610	O	0.732769	0.028262	0.242954
611	O	0.701176	0.52866	0.292418
612	O	0.690856	0.977518	0.089382
613	C	0.913012	0.207211	0.007859
614	C	0.932108	0.235809	0.036768
615	C	0.968599	0.253811	0.036945
616	C	0.987312	0.24394	0.007995
617	C	0.968743	0.215353	0.31199
618	C	0.931959	0.197432	0.312358
619	H	0.918951	0.177114	0.290659
620	C	0.524277	0.262642	0.009291
621	C	0.542958	0.260159	0.046397
622	C	0.579739	0.278593	0.045426
623	C	0.598264	0.300023	0.008753
624	C	0.579344	0.302706	0.305788
625	C	0.542852	0.283966	0.305846
626	H	0.593065	0.276637	0.072224
627	H	0.592011	0.317813	0.278585
628	H	0.91957	0.243456	0.058768
629	H	0.529904	0.286223	0.27883
630	H	0.981439	0.274291	0.05847
631	N	0.987271	0.20474	0.283631
632	N	0.524541	0.238986	0.083451
633	O	0.531334	0.256498	0.118922
634	O	0.98069	0.206296	0.242952
635	O	0.480292	0.174305	0.292417
636	C	0.635142	0.318469	0.341754
637	C	0.653802	0.355152	0.341757
638	C	0.690489	0.373811	0.341757
639	C	0.708513	0.355152	0.341757
640	C	0.690483	0.318464	0.341757
641	C	0.6538	0.300438	0.341754
642	H	0.735104	0.368448	0.341875
643	H	0.640505	0.273848	0.341875
644	H	0.640506	0.368446	0.341875
645	C	0.875825	0.188711	0.341264
646	C	0.85678	0.151979	0.341277
647	C	0.820049	0.133128	0.341267
648	C	0.802361	0.152172	0.341281
649	C	0.820242	0.188904	0.341264
650	C	0.856974	0.206592	0.341277
651	H	0.7758	0.138966	0.341284
652	H	0.870329	0.233153	0.341281
653	H	0.869987	0.138624	0.341284
654	C	0.801743	0.207592	0.341193
655	C	0.773147	0.198091	0.370106
656	C	0.755144	0.216581	0.370284
657	C	0.765013	0.245162	0.341331
658	C	0.793597	0.255177	0.64532
659	C	0.811519	0.236316	0.645689
660	H	0.831834	0.243625	0.623988
661	C	0.746311	0.263426	0.342627
662	C	0.7488	0.284594	0.379728
663	C	0.730367	0.302942	0.378754
664	C	0.70893	0.300031	0.342086
665	C	0.706241	0.278422	0.639126
666	C	0.724981	0.260671	0.639186
667	H	0.732328	0.318228	0.405551
668	H	0.691129	0.275978	0.611926
669	H	0.7655	0.177908	0.392109
670	H	0.722719	0.24546	0.612171
671	H	0.734664	0.208941	0.39181
672	N	0.80421	0.284316	0.616958
673	N	0.769978	0.287357	0.416778
674	O	0.752473	0.276644	0.452253
675	O	0.80265	0.276177	0.576282
676	O	0.834644	0.307775	0.625741
677	O	0.793835	0.318106	0.422696
678	C	0.801361	0.095941	0.341197
679	C	0.810864	0.076845	0.370106
680	C	0.792373	0.040354	0.370284
681	C	0.763791	0.021641	0.341331
682	C	0.753775	0.040211	0.645327
683	C	0.772636	0.076993	0.645693
684	H	0.765326	0.09	0.623995
685	C	0.745529	0.484676	0.342627
686	C	0.724362	0.465994	0.379734
687	C	0.706014	0.429213	0.378761
688	C	0.708921	0.410688	0.34209
689	C	0.730526	0.42961	0.639126
690	C	0.748278	0.466103	0.639183
691	H	0.690731	0.415888	0.405558
692	H	0.732968	0.416941	0.611922
693	H	0.831048	0.089383	0.392106
694	H	0.763485	0.479049	0.612167
695	H	0.800014	0.027514	0.391807
696	N	0.724634	0.021683	0.616965
697	N	0.721605	0.484412	0.416784
698	O	0.732322	0.477617	0.452257
699	O	0.732769	0.028262	0.576289
700	O	0.701176	0.52866	0.625751
701	O	0.690856	0.977518	0.422717
702	C	0.913012	0.207211	0.341193
703	C	0.932108	0.235809	0.370102
704	C	0.968599	0.253811	0.370277
705	C	0.987312	0.24394	0.341328
706	C	0.968743	0.215353	0.645323
707	C	0.931959	0.197432	0.645693
708	H	0.918951	0.177114	0.623992
709	C	0.524277	0.262642	0.342624
710	C	0.542958	0.260159	0.379731
711	C	0.579739	0.278593	0.378761
712	C	0.598264	0.300023	0.342086
713	C	0.579344	0.302706	0.639122
714	C	0.542852	0.283966	0.63918
715	H	0.593065	0.276637	0.405558
716	H	0.592011	0.317813	0.611919
717	H	0.91957	0.243456	0.392102
718	H	0.529904	0.286223	0.612164
719	H	0.981439	0.274291	0.391803
720	N	0.987271	0.20474	0.616965
721	N	0.524541	0.238986	0.416784
722	O	0.531334	0.256498	0.452257
723	O	0.98069	0.206296	0.576286
724	O	0.480292	0.174305	0.625751
725	C	0.635142	0.318469	0.675088
726	C	0.653802	0.355152	0.675092
727	C	0.690489	0.373811	0.675092
728	C	0.708513	0.355152	0.675092
729	C	0.690483	0.318464	0.675088
730	C	0.6538	0.300438	0.675088
731	H	0.735104	0.368448	0.675209
732	H	0.640505	0.273848	0.675206
733	H	0.640506	0.368446	0.675209
734	C	0.875825	0.188711	0.674598
735	C	0.85678	0.151979	0.674612
736	C	0.820049	0.133128	0.674598
737	C	0.802361	0.152172	0.674612
738	C	0.820242	0.188904	0.674598
739	C	0.856974	0.206592	0.674612
740	H	0.7758	0.138966	0.674618
741	H	0.870329	0.233153	0.674615
742	H	0.869987	0.138624	0.674615
743	C	0.801743	0.207592	0.674528
744	C	0.773147	0.198091	0.70344
745	C	0.755144	0.216581	0.703618
746	C	0.765013	0.245162	0.674662
747	C	0.793597	0.255177	0.978654
748	C	0.811519	0.236316	0.979023
749	H	0.831834	0.243625	0.957322
750	C	0.746311	0.263426	0.675958
751	C	0.7488	0.284594	0.713062
752	C	0.730367	0.302942	0.712088
753	C	0.70893	0.300031	0.675421
754	C	0.706241	0.278422	0.97246
755	C	0.724981	0.260671	0.972517
756	H	0.732328	0.318228	0.738885
757	H	0.691129	0.275978	0.94526
758	H	0.7655	0.177908	0.72544
759	H	0.722719	0.24546	0.945505
760	H	0.734664	0.208941	0.725144
761	N	0.80421	0.284316	0.950292
762	N	0.769978	0.287357	0.750109
763	O	0.752473	0.276644	0.785588
764	O	0.80265	0.276177	0.909613
765	O	0.834644	0.307775	0.959075
766	O	0.793835	0.318106	0.756031
767	C	0.801361	0.095941	0.674528
768	C	0.810864	0.076845	0.703437
769	C	0.792373	0.040354	0.703615
770	C	0.763791	0.021641	0.674665
771	C	0.753775	0.040211	0.978661
772	C	0.772636	0.076993	0.979027
773	H	0.765326	0.09	0.957329
774	C	0.745529	0.484676	0.675961
775	C	0.724362	0.465994	0.713065
776	C	0.706014	0.429213	0.712095
777	C	0.708921	0.410688	0.675424
778	C	0.730526	0.42961	0.97246
779	C	0.748278	0.466103	0.972517
780	H	0.690731	0.415888	0.738892
781	H	0.732968	0.416941	0.945257
782	H	0.831048	0.089383	0.72544
783	H	0.763485	0.479049	0.945502
784	H	0.800014	0.027514	0.725141
785	N	0.724634	0.021683	0.950299
786	N	0.721605	0.484412	0.750119
787	O	0.732322	0.477617	0.785591
788	O	0.732769	0.028262	0.909623
789	O	0.701176	0.52866	0.959085
790	O	0.690856	0.977518	0.756047
791	C	0.913012	0.207211	0.674524
792	C	0.932108	0.235809	0.703433
793	C	0.968599	0.253811	0.703611
794	C	0.987312	0.24394	0.674662
795	C	0.968743	0.215353	0.978657
796	C	0.931959	0.197432	0.979023
797	H	0.918951	0.177114	0.957326
798	C	0.524277	0.262642	0.675958
799	C	0.542958	0.260159	0.713065
800	C	0.579739	0.278593	0.712091
801	C	0.598264	0.300023	0.675421
802	C	0.579344	0.302706	0.972457
803	C	0.542852	0.283966	0.972514
804	H	0.593065	0.276637	0.738892
805	H	0.592011	0.317813	0.945253
806	H	0.91957	0.243456	0.725436
807	H	0.529904	0.286223	0.945495
808	H	0.981439	0.274291	0.725138
809	N	0.987271	0.20474	0.950299
810	N	0.524541	0.238986	0.750119
811	O	0.531334	0.256498	0.785591
812	O	0.98069	0.206296	0.90962
813	O	0.480292	0.174305	0.959085
814	C	0.635141	0.818469	0.008422
815	C	0.653802	0.855151	0.008425
816	C	0.690489	0.87381	0.008424
817	C	0.708512	0.855151	0.008425
818	C	0.690483	0.818463	0.008422
819	C	0.653801	0.80044	0.00842
820	H	0.735104	0.868448	0.008542
821	H	0.640506	0.773849	0.00854
822	H	0.640505	0.868445	0.008541
823	C	0.875825	0.688711	0.00793
824	C	0.85678	0.651979	0.007945
825	C	0.820049	0.633127	0.007932
826	C	0.802361	0.652171	0.007946
827	C	0.820241	0.688903	0.007931
828	C	0.856974	0.706591	0.007944
829	H	0.775799	0.638965	0.007951
830	H	0.870329	0.733153	0.007947
831	H	0.869987	0.638622	0.007949
832	C	0.801744	0.707593	0.00786
833	C	0.773146	0.698089	0.036772
834	C	0.755144	0.71658	0.036949
835	C	0.765012	0.74516	0.007996
836	C	0.793596	0.755175	0.311987
837	C	0.811519	0.736316	0.312355
838	H	0.831834	0.743624	0.290655
839	C	0.746311	0.763425	0.009292
840	C	0.748799	0.784593	0.046393
841	C	0.730366	0.802941	0.045422
842	C	0.70893	0.80003	0.008754
843	C	0.706241	0.778421	0.305793
844	C	0.724981	0.76067	0.305851
845	H	0.732328	0.81823	0.072217
846	H	0.691129	0.775977	0.278594
847	H	0.7655	0.677907	0.058774
848	H	0.722719	0.745459	0.278838
849	H	0.734665	0.708942	0.058476
850	N	0.804207	0.784315	0.283624
851	N	0.769978	0.787356	0.083443
852	O	0.752473	0.776644	0.118919
853	O	0.80265	0.776177	0.242947
854	O	0.834644	0.807774	0.292406
855	O	0.793834	0.818105	0.089364
856	C	0.801361	0.595941	0.007862
857	C	0.810863	0.576844	0.036771
858	C	0.792373	0.540353	0.036948
859	C	0.76379	0.521639	0.007998
860	C	0.753775	0.54021	0.311992
861	C	0.772635	0.576992	0.31236
862	H	0.765324	0.59	0.290661
863	C	0.745528	0.984676	0.009295
864	C	0.724362	0.965993	0.046399
865	C	0.706014	0.929212	0.045427
866	C	0.708921	0.910688	0.008756
867	C	0.730526	0.929609	0.305792
868	C	0.748278	0.966102	0.30585
869	H	0.69073	0.915887	0.072225
870	H	0.732968	0.91694	0.27859
871	H	0.831048	0.589383	0.058771
872	H	0.763485	0.979048	0.278834
873	H	0.800014	0.527513	0.058474
874	N	0.724634	0.521683	0.283632
875	N	0.721604	0.984411	0.083452
876	O	0.732321	0.977616	0.118925
877	O	0.732769	0.52826	0.242954
878	O	0.701175	0.028659	0.292418
879	O	0.690856	0.477518	0.089382
880	C	0.913012	0.707211	0.007859
881	C	0.932109	0.73581	0.036768
882	C	0.968599	0.75381	0.036945
883	C	0.987312	0.743941	0.007995
884	C	0.968743	0.715353	0.31199
885	C	0.931959	0.69743	0.312358
886	H	0.918951	0.677113	0.290659
887	C	0.524277	0.762642	0.009291
888	C	0.542958	0.760159	0.046397
889	C	0.579739	0.778592	0.045426
890	C	0.598264	0.800022	0.008753
891	C	0.579343	0.802705	0.305788
892	C	0.542851	0.783965	0.305846
893	H	0.593065	0.776636	0.072224
894	H	0.592011	0.817812	0.278585
895	H	0.91957	0.743456	0.058768
896	H	0.529905	0.786225	0.278829
897	H	0.981439	0.774291	0.05847
898	N	0.98727	0.704739	0.283631
899	N	0.524541	0.738985	0.083451
900	O	0.531334	0.756498	0.118922
901	O	0.98069	0.706296	0.242952
902	O	0.480293	0.674304	0.292417
903	C	0.635141	0.818469	0.341754
904	C	0.653802	0.855151	0.341757
905	C	0.690489	0.87381	0.341757
906	C	0.708512	0.855151	0.341757
907	C	0.690483	0.818463	0.341757
908	C	0.653801	0.80044	0.341754
909	H	0.735104	0.868448	0.341875
910	H	0.640506	0.773849	0.341875
911	H	0.640505	0.868445	0.341875
912	C	0.875825	0.688711	0.341264
913	C	0.85678	0.651979	0.341277
914	C	0.820049	0.633127	0.341267
915	C	0.802361	0.652171	0.341281
916	C	0.820241	0.688903	0.341264
917	C	0.856974	0.706591	0.341277
918	H	0.775799	0.638965	0.341284
919	H	0.870329	0.733153	0.341281
920	H	0.869987	0.638622	0.341284
921	C	0.801744	0.707593	0.341193
922	C	0.773146	0.698089	0.370106
923	C	0.755144	0.71658	0.370284
924	C	0.765012	0.74516	0.341331
925	C	0.793596	0.755175	0.64532
926	C	0.811519	0.736316	0.645689
927	H	0.831834	0.743624	0.623988
928	C	0.746311	0.763425	0.342627
929	C	0.748799	0.784593	0.379728
930	C	0.730366	0.802941	0.378754
931	C	0.70893	0.80003	0.342086
932	C	0.706241	0.778421	0.639126
933	C	0.724981	0.76067	0.639186
934	H	0.732328	0.81823	0.405551
935	H	0.691129	0.775977	0.611926
936	H	0.7655	0.677907	0.392109
937	H	0.722719	0.745459	0.612171
938	H	0.734665	0.708942	0.39181
939	N	0.804207	0.784315	0.616958
940	N	0.769978	0.787356	0.416778
941	O	0.752473	0.776644	0.452253
942	O	0.80265	0.776177	0.576282
943	O	0.834644	0.807774	0.625741
944	O	0.793834	0.818105	0.422696
945	C	0.801361	0.595941	0.341197
946	C	0.810863	0.576844	0.370106
947	C	0.792373	0.540353	0.370284
948	C	0.76379	0.521639	0.341331
949	C	0.753775	0.54021	0.645327
950	C	0.772635	0.576992	0.645693
951	H	0.765324	0.59	0.623995
952	C	0.745528	0.984676	0.342627
953	C	0.724362	0.965993	0.379734
954	C	0.706014	0.929212	0.378761
955	C	0.708921	0.910688	0.34209
956	C	0.730526	0.929609	0.639126
957	C	0.748278	0.966102	0.639183
958	H	0.69073	0.915887	0.405558
959	H	0.732968	0.91694	0.611922
960	H	0.831048	0.589383	0.392106
961	H	0.763485	0.979048	0.612167
962	H	0.800014	0.527513	0.391807
963	N	0.724634	0.521683	0.616965
964	N	0.721604	0.984411	0.416784
965	O	0.732321	0.977616	0.452257
966	O	0.732769	0.52826	0.576289
967	O	0.701175	0.028659	0.625751
968	O	0.690856	0.477518	0.422717
969	C	0.913012	0.707211	0.341193
970	C	0.932109	0.73581	0.370102
971	C	0.968599	0.75381	0.370277
972	C	0.987312	0.743941	0.341328
973	C	0.968743	0.715353	0.645323
974	C	0.931959	0.69743	0.645693
975	H	0.918951	0.677113	0.623992
976	C	0.524277	0.762642	0.342624
977	C	0.542958	0.760159	0.379731
978	C	0.579739	0.778592	0.378761
979	C	0.598264	0.800022	0.342086
980	C	0.579343	0.802705	0.639122
981	C	0.542851	0.783965	0.63918
982	H	0.593065	0.776636	0.405558
983	H	0.592011	0.817812	0.611919
984	H	0.91957	0.743456	0.392102
985	H	0.529905	0.786225	0.612164
986	H	0.981439	0.774291	0.391803
987	N	0.98727	0.704739	0.616965
988	N	0.524541	0.738985	0.416784
989	O	0.531334	0.756498	0.452257
990	O	0.98069	0.706296	0.576286
991	O	0.480293	0.674304	0.625751
992	C	0.635141	0.818469	0.675088
993	C	0.653802	0.855151	0.675092
994	C	0.690489	0.87381	0.675092
995	C	0.708512	0.855151	0.675092
996	C	0.690483	0.818463	0.675088
997	C	0.653801	0.80044	0.675088
998	H	0.735104	0.868448	0.675209
999	H	0.640506	0.773849	0.675206
1000	H	0.640505	0.868445	0.675209
1001	C	0.875825	0.688711	0.674598
1002	C	0.85678	0.651979	0.674612
1003	C	0.820049	0.633127	0.674598
1004	C	0.802361	0.652171	0.674612
1005	C	0.820241	0.688903	0.674598
1006	C	0.856974	0.706591	0.674612
1007	H	0.775799	0.638965	0.674618
1008	H	0.870329	0.733153	0.674615
1009	H	0.869987	0.638622	0.674615
1010	C	0.801744	0.707593	0.674528
1011	C	0.773146	0.698089	0.70344
1012	C	0.755144	0.71658	0.703618
1013	C	0.765012	0.74516	0.674662
1014	C	0.793596	0.755175	0.978654
1015	C	0.811519	0.736316	0.979023
1016	H	0.831834	0.743624	0.957322
1017	C	0.746311	0.763425	0.675958
1018	C	0.748799	0.784593	0.713062
1019	C	0.730366	0.802941	0.712088
1020	C	0.70893	0.80003	0.675421
1021	C	0.706241	0.778421	0.97246
1022	C	0.724981	0.76067	0.972517
1023	H	0.732328	0.81823	0.738885
1024	H	0.691129	0.775977	0.94526
1025	H	0.7655	0.677907	0.72544
1026	H	0.722719	0.745459	0.945505
1027	H	0.734665	0.708942	0.725144
1028	N	0.804207	0.784315	0.950292
1029	N	0.769978	0.787356	0.750109
1030	O	0.752473	0.776644	0.785588
1031	O	0.80265	0.776177	0.909613
1032	O	0.834644	0.807774	0.959075
1033	O	0.793834	0.818105	0.756031
1034	C	0.801361	0.595941	0.674528
1035	C	0.810863	0.576844	0.703437
1036	C	0.792373	0.540353	0.703615
1037	C	0.76379	0.521639	0.674665
1038	C	0.753775	0.54021	0.978661
1039	C	0.772635	0.576992	0.979027
1040	H	0.765324	0.59	0.957329
1041	C	0.745528	0.984676	0.675961
1042	C	0.724362	0.965993	0.713065
1043	C	0.706014	0.929212	0.712095
1044	C	0.708921	0.910688	0.675424
1045	C	0.730526	0.929609	0.97246
1046	C	0.748278	0.966102	0.972517
1047	H	0.69073	0.915887	0.738892
1048	H	0.732968	0.91694	0.945257
1049	H	0.831048	0.589383	0.72544
1050	H	0.763485	0.979048	0.945502
1051	H	0.800014	0.527513	0.725141
1052	N	0.724634	0.521683	0.950299
1053	N	0.721604	0.984411	0.750119
1054	O	0.732321	0.977616	0.785591
1055	O	0.732769	0.52826	0.909623
1056	O	0.701175	0.028659	0.959085
1057	O	0.690856	0.477518	0.756047
1058	C	0.913012	0.707211	0.674524
1059	C	0.932109	0.73581	0.703433
1060	C	0.968599	0.75381	0.703611
1061	C	0.987312	0.743941	0.674662
1062	C	0.968743	0.715353	0.978657
1063	C	0.931959	0.69743	0.979023
1064	H	0.918951	0.677113	0.957326
1065	C	0.524277	0.762642	0.675958
1066	C	0.542958	0.760159	0.713065
1067	C	0.579739	0.778592	0.712091
1068	C	0.598264	0.800022	0.675421
1069	C	0.579343	0.802705	0.972457
1070	C	0.542851	0.783965	0.972514
1071	H	0.593065	0.776636	0.738892
1072	H	0.592011	0.817812	0.945253
1073	H	0.91957	0.743456	0.725436
1074	H	0.529905	0.786225	0.945495
1075	H	0.981439	0.774291	0.725138
1076	N	0.98727	0.704739	0.950299
1077	N	0.524541	0.738985	0.750119
1078	O	0.531334	0.756498	0.785591
1079	O	0.98069	0.706296	0.90962
1080	O	0.480293	0.674304	0.959085
