data_C360H288N216O72_2018-02-15_10:32:35
#******************************************
#
# CIF file created by Zeo++
# Zeo++ is an open source package to
# analyze microporous materials
#
#*******************************************

_cell_length_a		43.191   
_cell_length_b		43.191   
_cell_length_c		30.083   
_cell_angle_alpha		90   
_cell_angle_beta		90   
_cell_angle_gamma		120   

_symmetry_space_group_name_H-M		'P1'
_symmetry_Int_Tables_number		1
_symmetry_cell_setting		Monoclinic

loop_
_symmetry_equiv_pos_as_xyz
'+x,+y,+z'

loop_
_atom_site_label
_atom_site_type_symbol
_atom_site_fract_x
_atom_site_fract_y
_atom_site_fract_z
1	C	0.128646	0.320245	0.291401
2	N	0.153126	0.355681	0.958314
3	C	0.188841	0.36791	0.957998
4	N	0.199803	0.343434	0.958284
5	C	0.176319	0.307717	0.958031
6	N	0.140883	0.296763	0.958357
7	C	0.21396	0.404523	0.962293
8	C	0.187811	0.282602	0.962392
9	C	0.092039	0.308743	0.962459
10	O	0.161818	0.247782	0.965251
11	O	0.083193	0.334724	0.965244
12	O	0.248785	0.413359	0.965095
13	C	0.367096	0.176498	0.373341
14	N	0.342239	0.141175	0.03964
15	C	0.306619	0.129443	0.039947
16	N	0.296155	0.154299	0.03964
17	C	0.320044	0.189915	0.040001
18	N	0.355366	0.200384	0.039692
19	C	0.281179	0.093006	0.034883
20	C	0.309064	0.21537	0.034973
21	C	0.403533	0.187475	0.034988
22	O	0.335363	0.249973	0.030935
23	O	0.411812	0.161167	0.030837
24	O	0.246584	0.084708	0.030783
25	C	0.303859	0.316657	0.297312
26	C	0.273791	0.282821	0.314573
27	H	0.320566	0.332543	0.325016
28	H	0.295502	0.332821	0.27874
29	H	0.320086	0.310644	0.27497
30	N	0.283274	0.25994	0.332524
31	C	0.260794	0.226919	0.016033
32	C	0.223787	0.215431	0.01386
33	C	0.19497	0.180603	0.030407
34	H	0.195093	0.158881	0.012041
35	H	0.168705	0.178155	0.026319
36	H	0.198968	0.17787	0.065694
37	N	0.214237	0.238364	0.996315
38	C	0.236718	0.271491	0.312992
39	N	0.273915	0.205962	0.031258
40	H	0.256438	0.18135	0.038515
41	N	0.223093	0.2924	0.299258
42	H	0.240169	0.317349	0.293681
43	C	0.179889	0.4865	0.297237
44	C	0.213753	0.490293	0.314433
45	H	0.164017	0.487294	0.324974
46	H	0.163728	0.461981	0.278656
47	H	0.185864	0.508743	0.274918
48	N	0.236626	0.022654	0.332396
49	C	0.269653	0.033205	0.01589
50	C	0.281158	0.0077	0.01368
51	C	0.315993	0.013718	0.030214
52	H	0.337708	0.035573	0.011854
53	H	0.318449	0.989907	0.026106
54	H	0.318727	0.020436	0.065506
55	N	0.258222	0.47521	0.996149
56	C	0.225083	0.464551	0.312856
57	N	0.290605	0.06728	0.031128
58	H	0.315217	0.07442	0.038396
59	N	0.204167	0.430012	0.299154
60	H	0.179212	0.422128	0.293606
61	C	0.010074	0.192685	0.297439
62	C	0.006281	0.222758	0.314625
63	H	0.009229	0.175995	0.325175
64	H	0.034613	0.201035	0.27891
65	H	0.987857	0.176442	0.275074
66	N	0.473911	0.21327	0.33256
67	C	0.463352	0.235745	0.01604
68	C	0.488861	0.272756	0.013845
69	C	0.482826	0.301573	0.030329
70	H	0.460979	0.301421	0.011932
71	H	0.506635	0.32784	0.026225
72	H	0.476084	0.2976	0.065615
73	N	0.021357	0.282311	0.996335
74	C	0.032027	0.25983	0.313078
75	N	0.429271	0.222622	0.031249
76	H	0.422134	0.240096	0.038522
77	N	0.066559	0.273461	0.299336
78	H	0.074437	0.256388	0.293766
79	C	0.128646	0.320245	0.624733
80	N	0.153126	0.355681	0.291648
81	C	0.188841	0.36791	0.291333
82	N	0.199803	0.343434	0.291618
83	C	0.176319	0.307717	0.291366
84	N	0.140883	0.296763	0.291689
85	C	0.21396	0.404523	0.295627
86	C	0.187811	0.282602	0.295726
87	C	0.092039	0.308743	0.295794
88	O	0.161818	0.247782	0.298584
89	O	0.083193	0.334724	0.298578
90	O	0.248785	0.413359	0.29843
91	C	0.367096	0.176498	0.706676
92	N	0.342239	0.141175	0.372972
93	C	0.306619	0.129443	0.373281
94	N	0.296155	0.154299	0.372972
95	C	0.320044	0.189915	0.373334
96	N	0.355366	0.200384	0.373025
97	C	0.281179	0.093006	0.368215
98	C	0.309064	0.21537	0.368305
99	C	0.403533	0.187475	0.368322
100	O	0.335363	0.249973	0.364266
101	O	0.411812	0.161167	0.36417
102	O	0.246584	0.084708	0.364117
103	C	0.303859	0.316657	0.630646
104	C	0.273791	0.282821	0.647905
105	H	0.320566	0.332543	0.65835
106	H	0.295502	0.332821	0.612071
107	H	0.320086	0.310644	0.608305
108	N	0.283274	0.25994	0.665856
109	C	0.260794	0.226919	0.349367
110	C	0.223787	0.215431	0.347193
111	C	0.19497	0.180603	0.363741
112	H	0.195093	0.158881	0.345375
113	H	0.168705	0.178155	0.359652
114	H	0.198968	0.17787	0.399027
115	N	0.214237	0.238364	0.329648
116	C	0.236718	0.271491	0.646326
117	N	0.273915	0.205962	0.364592
118	H	0.256438	0.18135	0.371848
119	N	0.223093	0.2924	0.632591
120	H	0.240169	0.317349	0.627013
121	C	0.179889	0.4865	0.63057
122	C	0.213753	0.490293	0.647766
123	H	0.164017	0.487294	0.658306
124	H	0.163728	0.461981	0.611988
125	H	0.185864	0.508743	0.608251
126	N	0.236626	0.022654	0.665729
127	C	0.269653	0.033205	0.349224
128	C	0.281158	0.0077	0.347014
129	C	0.315993	0.013718	0.363548
130	H	0.337708	0.035573	0.345186
131	H	0.318449	0.989907	0.359439
132	H	0.318727	0.020436	0.398837
133	N	0.258222	0.47521	0.329485
134	C	0.225083	0.464551	0.64619
135	N	0.290605	0.06728	0.364459
136	H	0.315217	0.07442	0.371729
137	N	0.204167	0.430012	0.632488
138	H	0.179212	0.422128	0.62694
139	C	0.010074	0.192685	0.630773
140	C	0.006281	0.222758	0.647958
141	H	0.009229	0.175995	0.658506
142	H	0.034613	0.201035	0.612244
143	H	0.987857	0.176442	0.608408
144	N	0.473911	0.21327	0.665892
145	C	0.463352	0.235745	0.349374
146	C	0.488861	0.272756	0.347177
147	C	0.482826	0.301573	0.363661
148	H	0.460979	0.301421	0.345265
149	H	0.506635	0.32784	0.359559
150	H	0.476084	0.2976	0.398947
151	N	0.021357	0.282311	0.329671
152	C	0.032027	0.25983	0.646413
153	N	0.429271	0.222622	0.364582
154	H	0.422134	0.240096	0.371855
155	N	0.066559	0.273461	0.632671
156	H	0.074437	0.256388	0.627099
157	C	0.128646	0.320245	0.958068
158	N	0.153126	0.355681	0.624982
159	C	0.188841	0.36791	0.624666
160	N	0.199803	0.343434	0.624952
161	C	0.176319	0.307717	0.624699
162	N	0.140883	0.296763	0.625022
163	C	0.21396	0.404523	0.628961
164	C	0.187811	0.282602	0.629057
165	C	0.092039	0.308743	0.629127
166	O	0.161818	0.247782	0.631916
167	O	0.083193	0.334724	0.631909
168	O	0.248785	0.413359	0.631763
169	C	0.367096	0.176498	0.040009
170	N	0.342239	0.141175	0.706307
171	C	0.306619	0.129443	0.706613
172	N	0.296155	0.154299	0.706307
173	C	0.320044	0.189915	0.706666
174	N	0.355366	0.200384	0.706357
175	C	0.281179	0.093006	0.701547
176	C	0.309064	0.21537	0.70164
177	C	0.403533	0.187475	0.701653
178	O	0.335363	0.249973	0.697601
179	O	0.411812	0.161167	0.697501
180	O	0.246584	0.084708	0.697448
181	C	0.303859	0.316657	0.963978
182	C	0.273791	0.282821	0.98124
183	H	0.320566	0.332543	0.991681
184	H	0.295502	0.332821	0.945406
185	H	0.320086	0.310644	0.941636
186	N	0.283274	0.25994	0.999191
187	C	0.260794	0.226919	0.682699
188	C	0.223787	0.215431	0.680525
189	C	0.19497	0.180603	0.697073
190	H	0.195093	0.158881	0.678707
191	H	0.168705	0.178155	0.692984
192	H	0.198968	0.17787	0.732362
193	N	0.214237	0.238364	0.66298
194	C	0.236718	0.271491	0.979658
195	N	0.273915	0.205962	0.697924
196	H	0.256438	0.18135	0.70518
197	N	0.223093	0.2924	0.965922
198	H	0.240169	0.317349	0.960348
199	C	0.179889	0.4865	0.963901
200	C	0.213753	0.490293	0.981097
201	H	0.164017	0.487294	0.991638
202	H	0.163728	0.461981	0.945323
203	H	0.185864	0.508743	0.941583
204	N	0.236626	0.022654	0.999063
205	C	0.269653	0.033205	0.682556
206	C	0.281158	0.0077	0.680345
207	C	0.315993	0.013718	0.69688
208	H	0.337708	0.035573	0.678521
209	H	0.318449	0.989907	0.692771
210	H	0.318727	0.020436	0.732172
211	N	0.258222	0.47521	0.662817
212	C	0.225083	0.464551	0.979522
213	N	0.290605	0.06728	0.697794
214	H	0.315217	0.07442	0.70506
215	N	0.204167	0.430012	0.965819
216	H	0.179212	0.422128	0.960271
217	C	0.010074	0.192685	0.964104
218	C	0.006281	0.222758	0.98129
219	H	0.009229	0.175995	0.991841
220	H	0.034613	0.201035	0.945575
221	H	0.987857	0.176442	0.941739
222	N	0.473911	0.21327	0.999226
223	C	0.463352	0.235745	0.682706
224	C	0.488861	0.272756	0.680512
225	C	0.482826	0.301573	0.696996
226	H	0.460979	0.301421	0.678597
227	H	0.506635	0.32784	0.692891
228	H	0.476084	0.2976	0.732282
229	N	0.021357	0.282311	0.663003
230	C	0.032027	0.25983	0.979744
231	N	0.429271	0.222622	0.697914
232	H	0.422134	0.240096	0.705187
233	N	0.066559	0.273461	0.966002
234	H	0.074437	0.256388	0.960431
235	C	0.128645	0.820245	0.291401
236	N	0.153125	0.85568	0.958314
237	C	0.188842	0.867911	0.957998
238	N	0.199803	0.843435	0.958284
239	C	0.176319	0.807717	0.958031
240	N	0.140883	0.796762	0.958357
241	C	0.21396	0.904524	0.962293
242	C	0.18781	0.7826	0.962392
243	C	0.092037	0.808741	0.962459
244	O	0.161817	0.747781	0.965251
245	O	0.083193	0.834725	0.965244
246	O	0.248784	0.913357	0.965095
247	C	0.367096	0.676498	0.373341
248	N	0.342239	0.641176	0.03964
249	C	0.306619	0.629442	0.039947
250	N	0.296154	0.654298	0.03964
251	C	0.320043	0.689914	0.040001
252	N	0.355366	0.700386	0.039691
253	C	0.28118	0.593006	0.034883
254	C	0.309063	0.71537	0.034973
255	C	0.403533	0.687475	0.034988
256	O	0.335363	0.749973	0.030935
257	O	0.411812	0.661166	0.030837
258	O	0.246583	0.584707	0.030783
259	C	0.30386	0.816658	0.297312
260	C	0.273791	0.782822	0.314573
261	H	0.320565	0.832541	0.325016
262	H	0.295503	0.832821	0.27874
263	H	0.320087	0.810645	0.27497
264	N	0.283274	0.75994	0.332524
265	C	0.260794	0.72692	0.016033
266	C	0.223786	0.715429	0.01386
267	C	0.19497	0.680602	0.030407
268	H	0.195092	0.65888	0.012041
269	H	0.168705	0.678156	0.026319
270	H	0.198967	0.67787	0.065694
271	N	0.214237	0.738365	0.996315
272	C	0.236718	0.771492	0.312992
273	N	0.273915	0.705962	0.031258
274	H	0.256438	0.68135	0.038515
275	N	0.223092	0.792398	0.299258
276	H	0.240168	0.817347	0.293681
277	C	0.179889	0.986501	0.297237
278	C	0.213752	0.990292	0.314433
279	H	0.164018	0.987295	0.324974
280	H	0.163728	0.961982	0.278656
281	H	0.185863	0.008742	0.274918
282	N	0.236626	0.522653	0.332395
283	C	0.269653	0.533205	0.01589
284	C	0.281158	0.5077	0.01368
285	C	0.315992	0.513718	0.030214
286	H	0.337708	0.535574	0.011854
287	H	0.31845	0.489908	0.026106
288	H	0.318726	0.520437	0.065506
289	N	0.258221	0.975208	0.996149
290	C	0.225083	0.964551	0.312856
291	N	0.290604	0.567279	0.031128
292	H	0.315216	0.57442	0.038396
293	N	0.204166	0.93001	0.299154
294	H	0.179212	0.922129	0.293606
295	C	0.010073	0.692683	0.297439
296	C	0.006281	0.722757	0.314625
297	H	0.00923	0.675995	0.325175
298	H	0.034614	0.701035	0.27891
299	H	0.987859	0.676442	0.275074
300	N	0.47391	0.713269	0.33256
301	C	0.463352	0.735745	0.01604
302	C	0.48886	0.772754	0.013845
303	C	0.482824	0.801571	0.030329
304	H	0.460979	0.801421	0.011932
305	H	0.506634	0.827841	0.026225
306	H	0.476083	0.797598	0.065615
307	N	0.021356	0.782311	0.996335
308	C	0.032026	0.75983	0.313078
309	N	0.429269	0.722621	0.031249
310	H	0.422134	0.740095	0.038522
311	N	0.066559	0.77346	0.299336
312	H	0.074436	0.756387	0.293766
313	C	0.128645	0.820245	0.624733
314	N	0.153125	0.85568	0.291648
315	C	0.188842	0.867911	0.291333
316	N	0.199803	0.843435	0.291618
317	C	0.176319	0.807717	0.291366
318	N	0.140883	0.796762	0.291689
319	C	0.21396	0.904524	0.295627
320	C	0.18781	0.7826	0.295726
321	C	0.092037	0.808741	0.295794
322	O	0.161817	0.747781	0.298584
323	O	0.083193	0.834725	0.298578
324	O	0.248784	0.913357	0.29843
325	C	0.367096	0.676498	0.706676
326	N	0.342239	0.641176	0.372972
327	C	0.306619	0.629442	0.373281
328	N	0.296154	0.654298	0.372972
329	C	0.320043	0.689914	0.373334
330	N	0.355366	0.700386	0.373025
331	C	0.28118	0.593006	0.368215
332	C	0.309063	0.71537	0.368305
333	C	0.403533	0.687475	0.368322
334	O	0.335363	0.749973	0.364266
335	O	0.411812	0.661166	0.36417
336	O	0.246583	0.584707	0.364117
337	C	0.30386	0.816658	0.630646
338	C	0.273791	0.782822	0.647905
339	H	0.320565	0.832541	0.65835
340	H	0.295503	0.832821	0.612071
341	H	0.320087	0.810645	0.608305
342	N	0.283274	0.75994	0.665856
343	C	0.260794	0.72692	0.349367
344	C	0.223786	0.715429	0.347193
345	C	0.19497	0.680602	0.363741
346	H	0.195092	0.65888	0.345375
347	H	0.168705	0.678156	0.359652
348	H	0.198967	0.67787	0.399027
349	N	0.214237	0.738365	0.329648
350	C	0.236718	0.771492	0.646326
351	N	0.273915	0.705962	0.364592
352	H	0.256438	0.68135	0.371848
353	N	0.223092	0.792398	0.632591
354	H	0.240168	0.817347	0.627013
355	C	0.179889	0.986501	0.63057
356	C	0.213752	0.990292	0.647766
357	H	0.164018	0.987295	0.658306
358	H	0.163728	0.961982	0.611988
359	H	0.185863	0.008742	0.608251
360	N	0.236626	0.522653	0.665729
361	C	0.269653	0.533205	0.349224
362	C	0.281158	0.5077	0.347014
363	C	0.315992	0.513718	0.363548
364	H	0.337708	0.535574	0.345186
365	H	0.31845	0.489908	0.359439
366	H	0.318726	0.520437	0.398837
367	N	0.258221	0.975208	0.329485
368	C	0.225083	0.964551	0.64619
369	N	0.290604	0.567279	0.364459
370	H	0.315216	0.57442	0.371729
371	N	0.204166	0.93001	0.632488
372	H	0.179212	0.922129	0.62694
373	C	0.010073	0.692683	0.630773
374	C	0.006281	0.722757	0.647958
375	H	0.00923	0.675995	0.658506
376	H	0.034614	0.701035	0.612244
377	H	0.987859	0.676442	0.608408
378	N	0.47391	0.713269	0.665892
379	C	0.463352	0.735745	0.349374
380	C	0.48886	0.772754	0.347177
381	C	0.482824	0.801571	0.363661
382	H	0.460979	0.801421	0.345265
383	H	0.506634	0.827841	0.359559
384	H	0.476083	0.797598	0.398947
385	N	0.021356	0.782311	0.329671
386	C	0.032026	0.75983	0.646413
387	N	0.429269	0.722621	0.364582
388	H	0.422134	0.740095	0.371855
389	N	0.066559	0.77346	0.632671
390	H	0.074436	0.756387	0.627099
391	C	0.128645	0.820245	0.958068
392	N	0.153125	0.85568	0.624982
393	C	0.188842	0.867911	0.624666
394	N	0.199803	0.843435	0.624952
395	C	0.176319	0.807717	0.624699
396	N	0.140883	0.796762	0.625022
397	C	0.21396	0.904524	0.628961
398	C	0.18781	0.7826	0.629057
399	C	0.092037	0.808741	0.629127
400	O	0.161817	0.747781	0.631916
401	O	0.083193	0.834725	0.631909
402	O	0.248784	0.913357	0.631763
403	C	0.367096	0.676498	0.040009
404	N	0.342239	0.641176	0.706307
405	C	0.306619	0.629442	0.706613
406	N	0.296154	0.654298	0.706307
407	C	0.320043	0.689914	0.706666
408	N	0.355366	0.700386	0.706357
409	C	0.28118	0.593006	0.701547
410	C	0.309063	0.71537	0.70164
411	C	0.403533	0.687475	0.701653
412	O	0.335363	0.749973	0.697601
413	O	0.411812	0.661166	0.697501
414	O	0.246583	0.584707	0.697448
415	C	0.30386	0.816658	0.963978
416	C	0.273791	0.782822	0.98124
417	H	0.320565	0.832541	0.991681
418	H	0.295503	0.832821	0.945406
419	H	0.320087	0.810645	0.941636
420	N	0.283274	0.75994	0.999191
421	C	0.260794	0.72692	0.682699
422	C	0.223786	0.715429	0.680525
423	C	0.19497	0.680602	0.697073
424	H	0.195092	0.65888	0.678707
425	H	0.168705	0.678156	0.692984
426	H	0.198967	0.67787	0.732362
427	N	0.214237	0.738365	0.66298
428	C	0.236718	0.771492	0.979658
429	N	0.273915	0.705962	0.697924
430	H	0.256438	0.68135	0.70518
431	N	0.223092	0.792398	0.965922
432	H	0.240168	0.817347	0.960348
433	C	0.179889	0.986501	0.963901
434	C	0.213752	0.990292	0.981097
435	H	0.164018	0.987295	0.991638
436	H	0.163728	0.961982	0.945323
437	H	0.185863	0.008742	0.941583
438	N	0.236626	0.522653	0.999063
439	C	0.269653	0.533205	0.682556
440	C	0.281158	0.5077	0.680345
441	C	0.315992	0.513718	0.69688
442	H	0.337708	0.535574	0.678521
443	H	0.31845	0.489908	0.692771
444	H	0.318726	0.520437	0.732172
445	N	0.258221	0.975208	0.662817
446	C	0.225083	0.964551	0.979522
447	N	0.290604	0.567279	0.697794
448	H	0.315216	0.57442	0.70506
449	N	0.204166	0.93001	0.965819
450	H	0.179212	0.922129	0.960271
451	C	0.010073	0.692683	0.964104
452	C	0.006281	0.722757	0.98129
453	H	0.00923	0.675995	0.991841
454	H	0.034614	0.701035	0.945575
455	H	0.987859	0.676442	0.941739
456	N	0.47391	0.713269	0.999226
457	C	0.463352	0.735745	0.682706
458	C	0.48886	0.772754	0.680512
459	C	0.482824	0.801571	0.696996
460	H	0.460979	0.801421	0.678597
461	H	0.506634	0.827841	0.692891
462	H	0.476083	0.797598	0.732282
463	N	0.021356	0.782311	0.663003
464	C	0.032026	0.75983	0.979744
465	N	0.429269	0.722621	0.697914
466	H	0.422134	0.740095	0.705187
467	N	0.066559	0.77346	0.966002
468	H	0.074436	0.756387	0.960431
469	C	0.628646	0.320245	0.291401
470	N	0.653125	0.355681	0.958314
471	C	0.68884	0.36791	0.957998
472	N	0.699802	0.343434	0.958284
473	C	0.676319	0.307717	0.958031
474	N	0.640882	0.296763	0.958357
475	C	0.713961	0.404523	0.962293
476	C	0.687811	0.282602	0.962392
477	C	0.592039	0.308743	0.962459
478	O	0.661818	0.247782	0.965251
479	O	0.583194	0.334724	0.965244
480	O	0.748785	0.413359	0.965095
481	C	0.867096	0.176498	0.373341
482	N	0.842239	0.141175	0.03964
483	C	0.806619	0.129443	0.039947
484	N	0.796156	0.154299	0.03964
485	C	0.820044	0.189915	0.040001
486	N	0.855366	0.200384	0.039692
487	C	0.781182	0.093006	0.034883
488	C	0.809065	0.21537	0.034973
489	C	0.903533	0.187475	0.034988
490	O	0.835363	0.249973	0.030935
491	O	0.911812	0.161167	0.030837
492	O	0.746584	0.084708	0.030783
493	C	0.803859	0.316657	0.297312
494	C	0.77379	0.282821	0.314573
495	H	0.820567	0.332543	0.325016
496	H	0.795502	0.332821	0.27874
497	H	0.820088	0.310644	0.27497
498	N	0.783275	0.25994	0.332524
499	C	0.760794	0.226919	0.016033
500	C	0.723788	0.215431	0.01386
501	C	0.694971	0.180603	0.030407
502	H	0.695094	0.158881	0.012041
503	H	0.668705	0.178155	0.026319
504	H	0.698967	0.17787	0.065694
505	N	0.714237	0.238364	0.996315
506	C	0.736718	0.271491	0.312992
507	N	0.773915	0.205962	0.031258
508	H	0.756439	0.18135	0.038515
509	N	0.723094	0.2924	0.299258
510	H	0.740171	0.317349	0.293681
511	C	0.679889	0.4865	0.297237
512	C	0.713754	0.490293	0.314433
513	H	0.664017	0.487294	0.324974
514	H	0.663729	0.461981	0.278656
515	H	0.685864	0.508743	0.274918
516	N	0.736626	0.022654	0.332396
517	C	0.769653	0.033205	0.01589
518	C	0.781158	0.0077	0.01368
519	C	0.815993	0.013718	0.030214
520	H	0.837708	0.035573	0.011854
521	H	0.818449	0.989907	0.026106
522	H	0.818727	0.020436	0.065506
523	N	0.758223	0.47521	0.996149
524	C	0.725084	0.464551	0.312856
525	N	0.790605	0.06728	0.031128
526	H	0.815217	0.07442	0.038396
527	N	0.704168	0.430012	0.299154
528	H	0.679212	0.422128	0.293606
529	C	0.510074	0.192685	0.297439
530	C	0.506281	0.222758	0.314625
531	H	0.509229	0.175995	0.325175
532	H	0.534615	0.201035	0.27891
533	H	0.487857	0.176442	0.275074
534	N	0.973911	0.21327	0.33256
535	C	0.963352	0.235745	0.01604
536	C	0.988861	0.272756	0.013845
537	C	0.982826	0.301573	0.030329
538	H	0.960979	0.301421	0.011932
539	H	0.006633	0.32784	0.026225
540	H	0.976084	0.2976	0.065615
541	N	0.521357	0.282311	0.996335
542	C	0.532027	0.25983	0.313078
543	N	0.929271	0.222622	0.031249
544	H	0.922134	0.240096	0.038522
545	N	0.566559	0.273461	0.299336
546	H	0.574437	0.256388	0.293766
547	C	0.628646	0.320245	0.624733
548	N	0.653125	0.355681	0.291648
549	C	0.68884	0.36791	0.291333
550	N	0.699802	0.343434	0.291618
551	C	0.676319	0.307717	0.291366
552	N	0.640882	0.296763	0.291689
553	C	0.713961	0.404523	0.295627
554	C	0.687811	0.282602	0.295726
555	C	0.592039	0.308743	0.295794
556	O	0.661818	0.247782	0.298584
557	O	0.583194	0.334724	0.298578
558	O	0.748785	0.413359	0.29843
559	C	0.867096	0.176498	0.706676
560	N	0.842239	0.141175	0.372972
561	C	0.806619	0.129443	0.373281
562	N	0.796156	0.154299	0.372972
563	C	0.820044	0.189915	0.373334
564	N	0.855366	0.200384	0.373025
565	C	0.781182	0.093006	0.368215
566	C	0.809065	0.21537	0.368305
567	C	0.903533	0.187475	0.368322
568	O	0.835363	0.249973	0.364266
569	O	0.911812	0.161167	0.36417
570	O	0.746584	0.084708	0.364117
571	C	0.803859	0.316657	0.630646
572	C	0.77379	0.282821	0.647905
573	H	0.820567	0.332543	0.65835
574	H	0.795502	0.332821	0.612071
575	H	0.820088	0.310644	0.608305
576	N	0.783275	0.25994	0.665856
577	C	0.760794	0.226919	0.349367
578	C	0.723788	0.215431	0.347193
579	C	0.694971	0.180603	0.363741
580	H	0.695094	0.158881	0.345375
581	H	0.668705	0.178155	0.359652
582	H	0.698967	0.17787	0.399027
583	N	0.714237	0.238364	0.329648
584	C	0.736718	0.271491	0.646326
585	N	0.773915	0.205962	0.364592
586	H	0.756439	0.18135	0.371848
587	N	0.723094	0.2924	0.632591
588	H	0.740171	0.317349	0.627013
589	C	0.679889	0.4865	0.63057
590	C	0.713754	0.490293	0.647766
591	H	0.664017	0.487294	0.658306
592	H	0.663729	0.461981	0.611988
593	H	0.685864	0.508743	0.608251
594	N	0.736626	0.022654	0.665729
595	C	0.769653	0.033205	0.349224
596	C	0.781158	0.0077	0.347014
597	C	0.815993	0.013718	0.363548
598	H	0.837708	0.035573	0.345186
599	H	0.818449	0.989907	0.359439
600	H	0.818727	0.020436	0.398837
601	N	0.758223	0.47521	0.329485
602	C	0.725084	0.464551	0.64619
603	N	0.790605	0.06728	0.364459
604	H	0.815217	0.07442	0.371729
605	N	0.704168	0.430012	0.632488
606	H	0.679212	0.422128	0.62694
607	C	0.510074	0.192685	0.630773
608	C	0.506281	0.222758	0.647958
609	H	0.509229	0.175995	0.658506
610	H	0.534615	0.201035	0.612244
611	H	0.487857	0.176442	0.608408
612	N	0.973911	0.21327	0.665892
613	C	0.963352	0.235745	0.349374
614	C	0.988861	0.272756	0.347177
615	C	0.982826	0.301573	0.363661
616	H	0.960979	0.301421	0.345265
617	H	0.006633	0.32784	0.359559
618	H	0.976084	0.2976	0.398947
619	N	0.521357	0.282311	0.329671
620	C	0.532027	0.25983	0.646413
621	N	0.929271	0.222622	0.364582
622	H	0.922134	0.240096	0.371855
623	N	0.566559	0.273461	0.632671
624	H	0.574437	0.256388	0.627099
625	C	0.628646	0.320245	0.958068
626	N	0.653125	0.355681	0.624982
627	C	0.68884	0.36791	0.624666
628	N	0.699802	0.343434	0.624952
629	C	0.676319	0.307717	0.624699
630	N	0.640882	0.296763	0.625022
631	C	0.713961	0.404523	0.628961
632	C	0.687811	0.282602	0.629057
633	C	0.592039	0.308743	0.629127
634	O	0.661818	0.247782	0.631916
635	O	0.583194	0.334724	0.631909
636	O	0.748785	0.413359	0.631763
637	C	0.867096	0.176498	0.040009
638	N	0.842239	0.141175	0.706307
639	C	0.806619	0.129443	0.706613
640	N	0.796156	0.154299	0.706307
641	C	0.820044	0.189915	0.706666
642	N	0.855366	0.200384	0.706357
643	C	0.781182	0.093006	0.701547
644	C	0.809065	0.21537	0.70164
645	C	0.903533	0.187475	0.701653
646	O	0.835363	0.249973	0.697601
647	O	0.911812	0.161167	0.697501
648	O	0.746584	0.084708	0.697448
649	C	0.803859	0.316657	0.963978
650	C	0.77379	0.282821	0.98124
651	H	0.820567	0.332543	0.991681
652	H	0.795502	0.332821	0.945406
653	H	0.820088	0.310644	0.941636
654	N	0.783275	0.25994	0.999191
655	C	0.760794	0.226919	0.682699
656	C	0.723788	0.215431	0.680525
657	C	0.694971	0.180603	0.697073
658	H	0.695094	0.158881	0.678707
659	H	0.668705	0.178155	0.692984
660	H	0.698967	0.17787	0.732362
661	N	0.714237	0.238364	0.66298
662	C	0.736718	0.271491	0.979658
663	N	0.773915	0.205962	0.697924
664	H	0.756439	0.18135	0.70518
665	N	0.723094	0.2924	0.965922
666	H	0.740171	0.317349	0.960348
667	C	0.679889	0.4865	0.963901
668	C	0.713754	0.490293	0.981097
669	H	0.664017	0.487294	0.991638
670	H	0.663729	0.461981	0.945323
671	H	0.685864	0.508743	0.941583
672	N	0.736626	0.022654	0.999063
673	C	0.769653	0.033205	0.682556
674	C	0.781158	0.0077	0.680345
675	C	0.815993	0.013718	0.69688
676	H	0.837708	0.035573	0.678521
677	H	0.818449	0.989907	0.692771
678	H	0.818727	0.020436	0.732172
679	N	0.758223	0.47521	0.662817
680	C	0.725084	0.464551	0.979522
681	N	0.790605	0.06728	0.697794
682	H	0.815217	0.07442	0.70506
683	N	0.704168	0.430012	0.965819
684	H	0.679212	0.422128	0.960271
685	C	0.510074	0.192685	0.964104
686	C	0.506281	0.222758	0.98129
687	H	0.509229	0.175995	0.991841
688	H	0.534615	0.201035	0.945575
689	H	0.487857	0.176442	0.941739
690	N	0.973911	0.21327	0.999226
691	C	0.963352	0.235745	0.682706
692	C	0.988861	0.272756	0.680512
693	C	0.982826	0.301573	0.696996
694	H	0.960979	0.301421	0.678597
695	H	0.006633	0.32784	0.692891
696	H	0.976084	0.2976	0.732282
697	N	0.521357	0.282311	0.663003
698	C	0.532027	0.25983	0.979744
699	N	0.929271	0.222622	0.697914
700	H	0.922134	0.240096	0.705187
701	N	0.566559	0.273461	0.966002
702	H	0.574437	0.256388	0.960431
703	C	0.628646	0.820245	0.291401
704	N	0.653125	0.85568	0.958314
705	C	0.688842	0.867911	0.957998
706	N	0.699803	0.843435	0.958284
707	C	0.676321	0.807717	0.958031
708	N	0.640883	0.796762	0.958357
709	C	0.71396	0.904524	0.962293
710	C	0.687811	0.7826	0.962392
711	C	0.592038	0.808741	0.962459
712	O	0.661818	0.747781	0.965251
713	O	0.583194	0.834725	0.965244
714	O	0.748783	0.913357	0.965095
715	C	0.867098	0.676498	0.373341
716	N	0.842241	0.641176	0.03964
717	C	0.80662	0.629442	0.039947
718	N	0.796154	0.654298	0.03964
719	C	0.820044	0.689914	0.040001
720	N	0.855367	0.700386	0.039691
721	C	0.78118	0.593006	0.034883
722	C	0.809064	0.71537	0.034973
723	C	0.903533	0.687475	0.034988
724	O	0.835363	0.749973	0.030935
725	O	0.911813	0.661166	0.030837
726	O	0.746582	0.584707	0.030783
727	C	0.80386	0.816658	0.297312
728	C	0.773792	0.782822	0.314573
729	H	0.820565	0.832541	0.325016
730	H	0.795504	0.832821	0.27874
731	H	0.820087	0.810645	0.27497
732	N	0.783274	0.75994	0.332524
733	C	0.760795	0.72692	0.016033
734	C	0.723786	0.715429	0.01386
735	C	0.69497	0.680602	0.030407
736	H	0.695093	0.65888	0.012041
737	H	0.668704	0.678156	0.026319
738	H	0.698968	0.67787	0.065694
739	N	0.714238	0.738365	0.996315
740	C	0.73672	0.771492	0.312992
741	N	0.773916	0.705962	0.031258
742	H	0.756438	0.68135	0.038515
743	N	0.723091	0.792398	0.299258
744	H	0.740169	0.817347	0.293681
745	C	0.679889	0.986501	0.297237
746	C	0.713752	0.990292	0.314433
747	H	0.664018	0.987295	0.324974
748	H	0.663728	0.961982	0.278656
749	H	0.685865	0.008742	0.274918
750	N	0.736627	0.522653	0.332395
751	C	0.769654	0.533205	0.01589
752	C	0.781159	0.5077	0.01368
753	C	0.815992	0.513718	0.030214
754	H	0.837709	0.535574	0.011854
755	H	0.818451	0.489908	0.026106
756	H	0.818726	0.520437	0.065506
757	N	0.75822	0.975208	0.996149
758	C	0.725083	0.964551	0.312856
759	N	0.790604	0.567279	0.031128
760	H	0.815216	0.57442	0.038396
761	N	0.704166	0.93001	0.299154
762	H	0.679213	0.922129	0.293606
763	C	0.510073	0.692683	0.297439
764	C	0.506281	0.722757	0.314625
765	H	0.50923	0.675995	0.325175
766	H	0.534614	0.701035	0.27891
767	H	0.487857	0.676442	0.275074
768	N	0.973909	0.713269	0.33256
769	C	0.963353	0.735745	0.01604
770	C	0.988861	0.772754	0.013845
771	C	0.982823	0.801571	0.030329
772	H	0.96098	0.801421	0.011932
773	H	0.006634	0.827841	0.026225
774	H	0.976084	0.797598	0.065615
775	N	0.521357	0.782311	0.996335
776	C	0.532027	0.75983	0.313078
777	N	0.929269	0.722621	0.031249
778	H	0.922135	0.740095	0.038522
779	N	0.566559	0.77346	0.299336
780	H	0.574437	0.756387	0.293766
781	C	0.628646	0.820245	0.624733
782	N	0.653125	0.85568	0.291648
783	C	0.688842	0.867911	0.291333
784	N	0.699803	0.843435	0.291618
785	C	0.676321	0.807717	0.291366
786	N	0.640883	0.796762	0.291689
787	C	0.71396	0.904524	0.295627
788	C	0.687811	0.7826	0.295726
789	C	0.592038	0.808741	0.295794
790	O	0.661818	0.747781	0.298584
791	O	0.583194	0.834725	0.298578
792	O	0.748783	0.913357	0.29843
793	C	0.867098	0.676498	0.706676
794	N	0.842241	0.641176	0.372972
795	C	0.80662	0.629442	0.373281
796	N	0.796154	0.654298	0.372972
797	C	0.820044	0.689914	0.373334
798	N	0.855367	0.700386	0.373025
799	C	0.78118	0.593006	0.368215
800	C	0.809064	0.71537	0.368305
801	C	0.903533	0.687475	0.368322
802	O	0.835363	0.749973	0.364266
803	O	0.911813	0.661166	0.36417
804	O	0.746582	0.584707	0.364117
805	C	0.80386	0.816658	0.630646
806	C	0.773792	0.782822	0.647905
807	H	0.820565	0.832541	0.65835
808	H	0.795504	0.832821	0.612071
809	H	0.820087	0.810645	0.608305
810	N	0.783274	0.75994	0.665856
811	C	0.760795	0.72692	0.349367
812	C	0.723786	0.715429	0.347193
813	C	0.69497	0.680602	0.363741
814	H	0.695093	0.65888	0.345375
815	H	0.668704	0.678156	0.359652
816	H	0.698968	0.67787	0.399027
817	N	0.714238	0.738365	0.329648
818	C	0.73672	0.771492	0.646326
819	N	0.773916	0.705962	0.364592
820	H	0.756438	0.68135	0.371848
821	N	0.723091	0.792398	0.632591
822	H	0.740169	0.817347	0.627013
823	C	0.679889	0.986501	0.63057
824	C	0.713752	0.990292	0.647766
825	H	0.664018	0.987295	0.658306
826	H	0.663728	0.961982	0.611988
827	H	0.685865	0.008742	0.608251
828	N	0.736627	0.522653	0.665729
829	C	0.769654	0.533205	0.349224
830	C	0.781159	0.5077	0.347014
831	C	0.815992	0.513718	0.363548
832	H	0.837709	0.535574	0.345186
833	H	0.818451	0.489908	0.359439
834	H	0.818726	0.520437	0.398837
835	N	0.75822	0.975208	0.329485
836	C	0.725083	0.964551	0.64619
837	N	0.790604	0.567279	0.364459
838	H	0.815216	0.57442	0.371729
839	N	0.704166	0.93001	0.632488
840	H	0.679213	0.922129	0.62694
841	C	0.510073	0.692683	0.630773
842	C	0.506281	0.722757	0.647958
843	H	0.50923	0.675995	0.658506
844	H	0.534614	0.701035	0.612244
845	H	0.487857	0.676442	0.608408
846	N	0.973909	0.713269	0.665892
847	C	0.963353	0.735745	0.349374
848	C	0.988861	0.772754	0.347177
849	C	0.982823	0.801571	0.363661
850	H	0.96098	0.801421	0.345265
851	H	0.006634	0.827841	0.359559
852	H	0.976084	0.797598	0.398947
853	N	0.521357	0.782311	0.329671
854	C	0.532027	0.75983	0.646413
855	N	0.929269	0.722621	0.364582
856	H	0.922135	0.740095	0.371855
857	N	0.566559	0.77346	0.632671
858	H	0.574437	0.756387	0.627099
859	C	0.628646	0.820245	0.958068
860	N	0.653125	0.85568	0.624982
861	C	0.688842	0.867911	0.624666
862	N	0.699803	0.843435	0.624952
863	C	0.676321	0.807717	0.624699
864	N	0.640883	0.796762	0.625022
865	C	0.71396	0.904524	0.628961
866	C	0.687811	0.7826	0.629057
867	C	0.592038	0.808741	0.629127
868	O	0.661818	0.747781	0.631916
869	O	0.583194	0.834725	0.631909
870	O	0.748783	0.913357	0.631763
871	C	0.867098	0.676498	0.040009
872	N	0.842241	0.641176	0.706307
873	C	0.80662	0.629442	0.706613
874	N	0.796154	0.654298	0.706307
875	C	0.820044	0.689914	0.706666
876	N	0.855367	0.700386	0.706357
877	C	0.78118	0.593006	0.701547
878	C	0.809064	0.71537	0.70164
879	C	0.903533	0.687475	0.701653
880	O	0.835363	0.749973	0.697601
881	O	0.911813	0.661166	0.697501
882	O	0.746582	0.584707	0.697448
883	C	0.80386	0.816658	0.963978
884	C	0.773792	0.782822	0.98124
885	H	0.820565	0.832541	0.991681
886	H	0.795504	0.832821	0.945406
887	H	0.820087	0.810645	0.941636
888	N	0.783274	0.75994	0.999191
889	C	0.760795	0.72692	0.682699
890	C	0.723786	0.715429	0.680525
891	C	0.69497	0.680602	0.697073
892	H	0.695093	0.65888	0.678707
893	H	0.668704	0.678156	0.692984
894	H	0.698968	0.67787	0.732362
895	N	0.714238	0.738365	0.66298
896	C	0.73672	0.771492	0.979658
897	N	0.773916	0.705962	0.697924
898	H	0.756438	0.68135	0.70518
899	N	0.723091	0.792398	0.965922
900	H	0.740169	0.817347	0.960348
901	C	0.679889	0.986501	0.963901
902	C	0.713752	0.990292	0.981097
903	H	0.664018	0.987295	0.991638
904	H	0.663728	0.961982	0.945323
905	H	0.685865	0.008742	0.941583
906	N	0.736627	0.522653	0.999063
907	C	0.769654	0.533205	0.682556
908	C	0.781159	0.5077	0.680345
909	C	0.815992	0.513718	0.69688
910	H	0.837709	0.535574	0.678521
911	H	0.818451	0.489908	0.692771
912	H	0.818726	0.520437	0.732172
913	N	0.75822	0.975208	0.662817
914	C	0.725083	0.964551	0.979522
915	N	0.790604	0.567279	0.697794
916	H	0.815216	0.57442	0.70506
917	N	0.704166	0.93001	0.965819
918	H	0.679213	0.922129	0.960271
919	C	0.510073	0.692683	0.964104
920	C	0.506281	0.722757	0.98129
921	H	0.50923	0.675995	0.991841
922	H	0.534614	0.701035	0.945575
923	H	0.487857	0.676442	0.941739
924	N	0.973909	0.713269	0.999226
925	C	0.963353	0.735745	0.682706
926	C	0.988861	0.772754	0.680512
927	C	0.982823	0.801571	0.696996
928	H	0.96098	0.801421	0.678597
929	H	0.006634	0.827841	0.692891
930	H	0.976084	0.797598	0.732282
931	N	0.521357	0.782311	0.663003
932	C	0.532027	0.75983	0.979744
933	N	0.929269	0.722621	0.697914
934	H	0.922135	0.740095	0.705187
935	N	0.566559	0.77346	0.966002
936	H	0.574437	0.756387	0.960431
