data_C432H360N144O72_2018-02-15_10:32:38
#******************************************
#
# CIF file created by Zeo++
# Zeo++ is an open source package to
# analyze microporous materials
#
#*******************************************

_cell_length_a		43.9258   
_cell_length_b		43.9258   
_cell_length_c		30.1464   
_cell_angle_alpha		90   
_cell_angle_beta		90   
_cell_angle_gamma		120   

_symmetry_space_group_name_H-M		'P1'
_symmetry_Int_Tables_number		1
_symmetry_cell_setting		Monoclinic

loop_
_symmetry_equiv_pos_as_xyz
'+x,+y,+z'

loop_
_atom_site_label
_atom_site_type_symbol
_atom_site_fract_x
_atom_site_fract_y
_atom_site_fract_z
1	C	0.176978	0.309038	0.032529
2	N	0.141669	0.295895	0.032168
3	C	0.127214	0.316938	0.032629
4	N	0.149378	0.352245	0.032194
5	C	0.18488	0.366713	0.032592
6	N	0.198016	0.34454	0.032113
7	N	0.092224	0.304404	0.027661
8	H	0.085057	0.322017	0.024393
9	N	0.207322	0.401694	0.027513
10	H	0.232097	0.40886	0.024188
11	N	0.189535	0.286607	0.027493
12	H	0.171932	0.261824	0.024233
13	C	0.31569	0.186042	0.962489
14	N	0.351006	0.199233	0.962957
15	C	0.365514	0.178233	0.962565
16	N	0.343387	0.142916	0.96295
17	C	0.307882	0.128414	0.962482
18	N	0.294687	0.150537	0.96289
19	N	0.400506	0.190837	0.967634
20	H	0.407713	0.173257	0.970941
21	N	0.28547	0.09342	0.967491
22	H	0.260678	0.086216	0.970745
23	N	0.303108	0.208454	0.967504
24	H	0.320696	0.233239	0.970805
25	C	0.257764	0.223115	0.319054
26	C	0.275909	0.248993	0.019123
27	C	0.264838	0.273411	0.029011
28	C	0.234831	0.271868	0.009351
29	C	0.216685	0.245991	0.309277
30	H	0.277537	0.291102	0.054064
31	C	0.227714	0.221525	0.299456
32	H	0.215065	0.203894	0.274333
33	C	0.189843	0.24588	0.278728
34	H	0.189782	0.27064	0.278963
35	H	0.163778	0.224617	0.287906
36	H	0.19505	0.241845	0.2444
37	C	0.302771	0.249116	0.04965
38	H	0.302839	0.224359	0.049406
39	H	0.297582	0.253153	0.083985
40	H	0.328829	0.270383	0.040453
41	C	0.268661	0.199571	0.303416
42	C	0.223973	0.295456	0.024941
43	O	0.248393	0.326359	0.043342
44	O	0.244292	0.168691	0.284914
45	C	0.270789	0.033412	0.319006
46	C	0.244929	0.02569	0.019102
47	C	0.220489	0.490196	0.028957
48	C	0.222045	0.461729	0.009325
49	C	0.247918	0.46946	0.309251
50	H	0.202841	0.485222	0.054057
51	C	0.272355	0.00495	0.299377
52	H	0.290019	0.009944	0.274288
53	C	0.248029	0.442723	0.27871
54	H	0.223267	0.417903	0.278952
55	H	0.26929	0.437921	0.287896
56	H	0.252064	0.451956	0.244379
57	C	0.244817	0.052428	0.049635
58	H	0.269572	0.077256	0.049375
59	H	0.240799	0.043203	0.083969
60	H	0.223542	0.057213	0.040461
61	C	0.294351	0.067856	0.303389
62	C	0.198476	0.427285	0.024931
63	O	0.167634	0.420818	0.043512
64	O	0.325257	0.074362	0.284981
65	C	0.460493	0.236194	0.319244
66	C	0.468223	0.218052	0.019321
67	C	0.003708	0.22912	0.029215
68	C	0.032176	0.259121	0.00955
69	C	0.024451	0.277267	0.309468
70	H	0.008697	0.216421	0.054271
71	C	0.488955	0.266242	0.299645
72	H	0.483978	0.278889	0.274515
73	C	0.051183	0.304096	0.27891
74	H	0.075994	0.304136	0.279134
75	H	0.056006	0.330168	0.288092
76	H	0.041934	0.298897	0.244586
77	C	0.441478	0.191186	0.049839
78	H	0.416637	0.191086	0.049553
79	H	0.450684	0.196398	0.084181
80	H	0.436721	0.165134	0.040672
81	C	0.426052	0.225288	0.303605
82	C	0.066619	0.26997	0.025137
83	O	0.073106	0.24556	0.043561
84	O	0.419554	0.249646	0.285038
85	C	0.176978	0.309038	0.365864
86	N	0.141669	0.295895	0.365503
87	C	0.127214	0.316938	0.365964
88	N	0.149378	0.352245	0.365529
89	C	0.18488	0.366713	0.365924
90	N	0.198016	0.34454	0.365446
91	N	0.092224	0.304404	0.360995
92	H	0.085057	0.322017	0.357727
93	N	0.207322	0.401694	0.360845
94	H	0.232097	0.40886	0.357522
95	N	0.189535	0.286607	0.360826
96	H	0.171932	0.261824	0.357568
97	C	0.31569	0.186042	0.295822
98	N	0.351006	0.199233	0.296291
99	C	0.365514	0.178233	0.295899
100	N	0.343387	0.142916	0.296282
101	C	0.307882	0.128414	0.295814
102	N	0.294687	0.150537	0.296222
103	N	0.400506	0.190837	0.300966
104	H	0.407713	0.173257	0.304274
105	N	0.28547	0.09342	0.300823
106	H	0.260678	0.086216	0.304077
107	N	0.303108	0.208454	0.300836
108	H	0.320696	0.233239	0.304138
109	C	0.257764	0.223115	0.652389
110	C	0.275909	0.248993	0.352456
111	C	0.264838	0.273411	0.362345
112	C	0.234831	0.271868	0.342684
113	C	0.216685	0.245991	0.64261
114	H	0.277537	0.291102	0.387396
115	C	0.227714	0.221525	0.632791
116	H	0.215065	0.203894	0.607667
117	C	0.189843	0.24588	0.612063
118	H	0.189782	0.27064	0.612298
119	H	0.163778	0.224617	0.621241
120	H	0.19505	0.241845	0.577733
121	C	0.302771	0.249116	0.382984
122	H	0.302839	0.224359	0.382739
123	H	0.297582	0.253153	0.41732
124	H	0.328829	0.270383	0.373786
125	C	0.268661	0.199571	0.636749
126	C	0.223973	0.295456	0.358275
127	O	0.248393	0.326359	0.376675
128	O	0.244292	0.168691	0.618249
129	C	0.270789	0.033412	0.652339
130	C	0.244929	0.02569	0.352436
131	C	0.220489	0.490196	0.362292
132	C	0.222045	0.461729	0.342658
133	C	0.247918	0.46946	0.642584
134	H	0.202841	0.485222	0.387389
135	C	0.272355	0.00495	0.632712
136	H	0.290019	0.009944	0.607621
137	C	0.248029	0.442723	0.612043
138	H	0.223267	0.417903	0.612285
139	H	0.26929	0.437921	0.621228
140	H	0.252064	0.451956	0.577714
141	C	0.244817	0.052428	0.382967
142	H	0.269572	0.077256	0.382709
143	H	0.240799	0.043203	0.417303
144	H	0.223542	0.057213	0.373796
145	C	0.294351	0.067856	0.636722
146	C	0.198476	0.427285	0.358265
147	O	0.167634	0.420818	0.376847
148	O	0.325257	0.074362	0.618315
149	C	0.460493	0.236194	0.652578
150	C	0.468223	0.218052	0.352655
151	C	0.003708	0.22912	0.36255
152	C	0.032176	0.259121	0.342883
153	C	0.024451	0.277267	0.642803
154	H	0.008697	0.216421	0.387605
155	C	0.488955	0.266242	0.632977
156	H	0.483978	0.278889	0.60785
157	C	0.051183	0.304096	0.612245
158	H	0.075994	0.304136	0.612467
159	H	0.056006	0.330168	0.621427
160	H	0.041934	0.298897	0.577919
161	C	0.441478	0.191186	0.383173
162	H	0.416637	0.191086	0.382888
163	H	0.450684	0.196398	0.417515
164	H	0.436721	0.165134	0.374005
165	C	0.426052	0.225288	0.636938
166	C	0.066619	0.26997	0.35847
167	O	0.073106	0.24556	0.376894
168	O	0.419554	0.249646	0.618372
169	C	0.176978	0.309038	0.699197
170	N	0.141669	0.295895	0.698836
171	C	0.127214	0.316938	0.699297
172	N	0.149378	0.352245	0.698862
173	C	0.18488	0.366713	0.69926
174	N	0.198016	0.34454	0.698779
175	N	0.092224	0.304404	0.694328
176	H	0.085057	0.322017	0.69106
177	N	0.207322	0.401694	0.694178
178	H	0.232097	0.40886	0.690855
179	N	0.189535	0.286607	0.694162
180	H	0.171932	0.261824	0.690901
181	C	0.31569	0.186042	0.629156
182	N	0.351006	0.199233	0.629624
183	C	0.365514	0.178233	0.629232
184	N	0.343387	0.142916	0.629614
185	C	0.307882	0.128414	0.629149
186	N	0.294687	0.150537	0.629554
187	N	0.400506	0.190837	0.634301
188	H	0.407713	0.173257	0.637608
189	N	0.28547	0.09342	0.634158
190	H	0.260678	0.086216	0.637412
191	N	0.303108	0.208454	0.634171
192	H	0.320696	0.233239	0.637472
193	C	0.257764	0.223115	0.985722
194	C	0.275909	0.248993	0.685789
195	C	0.264838	0.273411	0.695678
196	C	0.234831	0.271868	0.676017
197	C	0.216685	0.245991	0.975943
198	H	0.277537	0.291102	0.720732
199	C	0.227714	0.221525	0.966124
200	H	0.215065	0.203894	0.941
201	C	0.189843	0.24588	0.945396
202	H	0.189782	0.27064	0.945631
203	H	0.163778	0.224617	0.954574
204	H	0.19505	0.241845	0.911067
205	C	0.302771	0.249116	0.716317
206	H	0.302839	0.224359	0.716072
207	H	0.297582	0.253153	0.750653
208	H	0.328829	0.270383	0.707122
209	C	0.268661	0.199571	0.970085
210	C	0.223973	0.295456	0.691608
211	O	0.248393	0.326359	0.710008
212	O	0.244292	0.168691	0.951582
213	C	0.270789	0.033412	0.985672
214	C	0.244929	0.02569	0.685769
215	C	0.220489	0.490196	0.695625
216	C	0.222045	0.461729	0.675994
217	C	0.247918	0.46946	0.975917
218	H	0.202841	0.485222	0.720726
219	C	0.272355	0.00495	0.966045
220	H	0.290019	0.009944	0.940954
221	C	0.248029	0.442723	0.945379
222	H	0.223267	0.417903	0.945621
223	H	0.26929	0.437921	0.954564
224	H	0.252064	0.451956	0.911047
225	C	0.244817	0.052428	0.716304
226	H	0.269572	0.077256	0.716042
227	H	0.240799	0.043203	0.750636
228	H	0.223542	0.057213	0.707129
229	C	0.294351	0.067856	0.970055
230	C	0.198476	0.427285	0.691598
231	O	0.167634	0.420818	0.71018
232	O	0.325257	0.074362	0.951648
233	C	0.460493	0.236194	0.985911
234	C	0.468223	0.218052	0.685988
235	C	0.003708	0.22912	0.695883
236	C	0.032176	0.259121	0.676216
237	C	0.024451	0.277267	0.976136
238	H	0.008697	0.216421	0.720938
239	C	0.488955	0.266242	0.966314
240	H	0.483978	0.278889	0.941183
241	C	0.051183	0.304096	0.945578
242	H	0.075994	0.304136	0.9458
243	H	0.056006	0.330168	0.95476
244	H	0.041934	0.298897	0.911252
245	C	0.441478	0.191186	0.716506
246	H	0.416637	0.191086	0.716221
247	H	0.450684	0.196398	0.750849
248	H	0.436721	0.165134	0.707341
249	C	0.426052	0.225288	0.970274
250	C	0.066619	0.26997	0.691803
251	O	0.073106	0.24556	0.710227
252	O	0.419554	0.249646	0.951705
253	C	0.176977	0.809037	0.032529
254	N	0.141669	0.795893	0.032168
255	C	0.127212	0.816936	0.032629
256	N	0.149379	0.852246	0.032194
257	C	0.18488	0.866712	0.032592
258	N	0.198016	0.844538	0.032113
259	N	0.092224	0.804403	0.027661
260	H	0.085057	0.822018	0.024393
261	N	0.207322	0.901693	0.027513
262	H	0.232096	0.908859	0.024188
263	N	0.189536	0.786609	0.027493
264	H	0.171932	0.761825	0.024233
265	C	0.31569	0.68604	0.962489
266	N	0.351006	0.699232	0.962957
267	C	0.365514	0.678233	0.962565
268	N	0.343386	0.642916	0.96295
269	C	0.307881	0.628413	0.962482
270	N	0.294687	0.650537	0.96289
271	N	0.400507	0.690838	0.967634
272	H	0.407713	0.673257	0.970941
273	N	0.285469	0.593419	0.967491
274	H	0.260678	0.586216	0.970745
275	N	0.303108	0.708453	0.967504
276	H	0.320695	0.733237	0.970805
277	C	0.257764	0.723114	0.319054
278	C	0.275909	0.748994	0.019123
279	C	0.264837	0.77341	0.029011
280	C	0.234832	0.771869	0.009351
281	C	0.216685	0.745992	0.309277
282	H	0.277537	0.791101	0.054064
283	C	0.227713	0.721523	0.299456
284	H	0.215064	0.703892	0.274333
285	C	0.189842	0.745879	0.278728
286	H	0.189783	0.770642	0.278963
287	H	0.163778	0.724617	0.287906
288	H	0.19505	0.741844	0.2444
289	C	0.302771	0.749115	0.04965
290	H	0.302838	0.724357	0.049406
291	H	0.297582	0.753152	0.083985
292	H	0.328829	0.770384	0.040453
293	C	0.268661	0.699571	0.303416
294	C	0.223973	0.795454	0.024941
295	O	0.248392	0.826358	0.043342
296	O	0.244292	0.668691	0.284914
297	C	0.27079	0.533413	0.319006
298	C	0.24493	0.525689	0.019102
299	C	0.220489	0.990195	0.028957
300	C	0.222043	0.961728	0.009325
301	C	0.24792	0.969462	0.309251
302	H	0.20284	0.985221	0.054057
303	C	0.272355	0.504949	0.299377
304	H	0.290018	0.509943	0.274288
305	C	0.248028	0.942722	0.27871
306	H	0.223267	0.917901	0.278952
307	H	0.26929	0.937919	0.287896
308	H	0.252063	0.951954	0.244379
309	C	0.244817	0.552429	0.049635
310	H	0.269571	0.577255	0.049375
311	H	0.240799	0.543202	0.083969
312	H	0.223542	0.557213	0.040461
313	C	0.29435	0.567855	0.303389
314	C	0.198476	0.927283	0.024931
315	O	0.167633	0.920817	0.043512
316	O	0.325258	0.574361	0.284981
317	C	0.460494	0.736194	0.319244
318	C	0.468221	0.718051	0.019321
319	C	0.003709	0.72912	0.029215
320	C	0.032174	0.75912	0.00955
321	C	0.024451	0.777266	0.309468
322	H	0.008698	0.716421	0.054271
323	C	0.488956	0.766241	0.299645
324	H	0.483977	0.778888	0.274515
325	C	0.051183	0.804095	0.27891
326	H	0.075996	0.804137	0.279134
327	H	0.056005	0.830167	0.288092
328	H	0.041933	0.798895	0.244586
329	C	0.441478	0.691185	0.049839
330	H	0.416637	0.691085	0.049553
331	H	0.450685	0.696398	0.084181
332	H	0.436721	0.665134	0.040672
333	C	0.426051	0.725288	0.303605
334	C	0.066618	0.769969	0.025137
335	O	0.073107	0.745561	0.043561
336	O	0.419553	0.749646	0.285038
337	C	0.176977	0.809037	0.365864
338	N	0.141669	0.795893	0.365503
339	C	0.127212	0.816936	0.365964
340	N	0.149379	0.852246	0.365529
341	C	0.18488	0.866712	0.365924
342	N	0.198016	0.844538	0.365446
343	N	0.092224	0.804403	0.360995
344	H	0.085057	0.822018	0.357727
345	N	0.207322	0.901693	0.360845
346	H	0.232096	0.908859	0.357522
347	N	0.189536	0.786609	0.360826
348	H	0.171932	0.761825	0.357568
349	C	0.31569	0.68604	0.295822
350	N	0.351006	0.699232	0.296291
351	C	0.365514	0.678233	0.295899
352	N	0.343386	0.642916	0.296282
353	C	0.307881	0.628413	0.295814
354	N	0.294687	0.650537	0.296222
355	N	0.400507	0.690838	0.300966
356	H	0.407713	0.673257	0.304274
357	N	0.285469	0.593419	0.300823
358	H	0.260678	0.586216	0.304077
359	N	0.303108	0.708453	0.300836
360	H	0.320695	0.733237	0.304138
361	C	0.257764	0.723114	0.652389
362	C	0.275909	0.748994	0.352456
363	C	0.264837	0.77341	0.362345
364	C	0.234832	0.771869	0.342684
365	C	0.216685	0.745992	0.64261
366	H	0.277537	0.791101	0.387396
367	C	0.227713	0.721523	0.632791
368	H	0.215064	0.703892	0.607667
369	C	0.189842	0.745879	0.612063
370	H	0.189783	0.770642	0.612298
371	H	0.163778	0.724617	0.621241
372	H	0.19505	0.741844	0.577733
373	C	0.302771	0.749115	0.382984
374	H	0.302838	0.724357	0.382739
375	H	0.297582	0.753152	0.41732
376	H	0.328829	0.770384	0.373786
377	C	0.268661	0.699571	0.636749
378	C	0.223973	0.795454	0.358275
379	O	0.248392	0.826358	0.376675
380	O	0.244292	0.668691	0.618249
381	C	0.27079	0.533413	0.652339
382	C	0.24493	0.525689	0.352436
383	C	0.220489	0.990195	0.362292
384	C	0.222043	0.961728	0.342658
385	C	0.24792	0.969462	0.642584
386	H	0.20284	0.985221	0.387389
387	C	0.272355	0.504949	0.632712
388	H	0.290018	0.509943	0.607621
389	C	0.248028	0.942722	0.612043
390	H	0.223267	0.917901	0.612285
391	H	0.26929	0.937919	0.621228
392	H	0.252063	0.951954	0.577714
393	C	0.244817	0.552429	0.382967
394	H	0.269571	0.577255	0.382709
395	H	0.240799	0.543202	0.417303
396	H	0.223542	0.557213	0.373796
397	C	0.29435	0.567855	0.636722
398	C	0.198476	0.927283	0.358265
399	O	0.167633	0.920817	0.376847
400	O	0.325258	0.574361	0.618315
401	C	0.460494	0.736194	0.652578
402	C	0.468221	0.718051	0.352655
403	C	0.003709	0.72912	0.36255
404	C	0.032174	0.75912	0.342883
405	C	0.024451	0.777266	0.642803
406	H	0.008698	0.716421	0.387605
407	C	0.488956	0.766241	0.632977
408	H	0.483977	0.778888	0.60785
409	C	0.051183	0.804095	0.612245
410	H	0.075996	0.804137	0.612467
411	H	0.056005	0.830167	0.621427
412	H	0.041933	0.798895	0.577919
413	C	0.441478	0.691185	0.383173
414	H	0.416637	0.691085	0.382888
415	H	0.450685	0.696398	0.417515
416	H	0.436721	0.665134	0.374005
417	C	0.426051	0.725288	0.636938
418	C	0.066618	0.769969	0.35847
419	O	0.073107	0.745561	0.376894
420	O	0.419553	0.749646	0.618372
421	C	0.176977	0.809037	0.699197
422	N	0.141669	0.795893	0.698836
423	C	0.127212	0.816936	0.699297
424	N	0.149379	0.852246	0.698862
425	C	0.18488	0.866712	0.69926
426	N	0.198016	0.844538	0.698779
427	N	0.092224	0.804403	0.694328
428	H	0.085057	0.822018	0.69106
429	N	0.207322	0.901693	0.694178
430	H	0.232096	0.908859	0.690855
431	N	0.189536	0.786609	0.694162
432	H	0.171932	0.761825	0.690901
433	C	0.31569	0.68604	0.629156
434	N	0.351006	0.699232	0.629624
435	C	0.365514	0.678233	0.629232
436	N	0.343386	0.642916	0.629614
437	C	0.307881	0.628413	0.629149
438	N	0.294687	0.650537	0.629554
439	N	0.400507	0.690838	0.634301
440	H	0.407713	0.673257	0.637608
441	N	0.285469	0.593419	0.634158
442	H	0.260678	0.586216	0.637412
443	N	0.303108	0.708453	0.634171
444	H	0.320695	0.733237	0.637472
445	C	0.257764	0.723114	0.985722
446	C	0.275909	0.748994	0.685789
447	C	0.264837	0.77341	0.695678
448	C	0.234832	0.771869	0.676017
449	C	0.216685	0.745992	0.975943
450	H	0.277537	0.791101	0.720732
451	C	0.227713	0.721523	0.966124
452	H	0.215064	0.703892	0.941
453	C	0.189842	0.745879	0.945396
454	H	0.189783	0.770642	0.945631
455	H	0.163778	0.724617	0.954574
456	H	0.19505	0.741844	0.911067
457	C	0.302771	0.749115	0.716317
458	H	0.302838	0.724357	0.716072
459	H	0.297582	0.753152	0.750653
460	H	0.328829	0.770384	0.707122
461	C	0.268661	0.699571	0.970085
462	C	0.223973	0.795454	0.691608
463	O	0.248392	0.826358	0.710008
464	O	0.244292	0.668691	0.951582
465	C	0.27079	0.533413	0.985672
466	C	0.24493	0.525689	0.685769
467	C	0.220489	0.990195	0.695625
468	C	0.222043	0.961728	0.675994
469	C	0.24792	0.969462	0.975917
470	H	0.20284	0.985221	0.720726
471	C	0.272355	0.504949	0.966045
472	H	0.290018	0.509943	0.940954
473	C	0.248028	0.942722	0.945379
474	H	0.223267	0.917901	0.945621
475	H	0.26929	0.937919	0.954564
476	H	0.252063	0.951954	0.911047
477	C	0.244817	0.552429	0.716304
478	H	0.269571	0.577255	0.716042
479	H	0.240799	0.543202	0.750636
480	H	0.223542	0.557213	0.707129
481	C	0.29435	0.567855	0.970055
482	C	0.198476	0.927283	0.691598
483	O	0.167633	0.920817	0.71018
484	O	0.325258	0.574361	0.951648
485	C	0.460494	0.736194	0.985911
486	C	0.468221	0.718051	0.685988
487	C	0.003709	0.72912	0.695883
488	C	0.032174	0.75912	0.676216
489	C	0.024451	0.777266	0.976136
490	H	0.008698	0.716421	0.720938
491	C	0.488956	0.766241	0.966314
492	H	0.483977	0.778888	0.941183
493	C	0.051183	0.804095	0.945578
494	H	0.075996	0.804137	0.9458
495	H	0.056005	0.830167	0.95476
496	H	0.041933	0.798895	0.911252
497	C	0.441478	0.691185	0.716506
498	H	0.416637	0.691085	0.716221
499	H	0.450685	0.696398	0.750849
500	H	0.436721	0.665134	0.707341
501	C	0.426051	0.725288	0.970274
502	C	0.066618	0.769969	0.691803
503	O	0.073107	0.745561	0.710227
504	O	0.419553	0.749646	0.951705
505	C	0.676978	0.309038	0.032529
506	N	0.641669	0.295895	0.032168
507	C	0.627214	0.316938	0.032629
508	N	0.649377	0.352245	0.032194
509	C	0.68488	0.366713	0.032592
510	N	0.698016	0.34454	0.032113
511	N	0.592224	0.304404	0.027661
512	H	0.585057	0.322017	0.024393
513	N	0.707322	0.401694	0.027513
514	H	0.732097	0.40886	0.024188
515	N	0.689536	0.286607	0.027493
516	H	0.671931	0.261824	0.024233
517	C	0.815689	0.186042	0.962489
518	N	0.851006	0.199233	0.962957
519	C	0.865514	0.178233	0.962565
520	N	0.843387	0.142916	0.96295
521	C	0.807882	0.128414	0.962482
522	N	0.794686	0.150537	0.96289
523	N	0.900506	0.190837	0.967634
524	H	0.907713	0.173257	0.970941
525	N	0.78547	0.09342	0.967491
526	H	0.760677	0.086216	0.970745
527	N	0.803108	0.208454	0.967504
528	H	0.820695	0.233239	0.970805
529	C	0.757763	0.223115	0.319054
530	C	0.775909	0.248993	0.019123
531	C	0.764837	0.273411	0.029011
532	C	0.73483	0.271868	0.009351
533	C	0.716685	0.245991	0.309277
534	H	0.777537	0.291102	0.054064
535	C	0.727714	0.221525	0.299456
536	H	0.715065	0.203894	0.274333
537	C	0.689844	0.24588	0.278728
538	H	0.689782	0.27064	0.278963
539	H	0.663777	0.224617	0.287906
540	H	0.69505	0.241845	0.2444
541	C	0.802772	0.249116	0.04965
542	H	0.80284	0.224359	0.049406
543	H	0.797583	0.253153	0.083985
544	H	0.828829	0.270383	0.040453
545	C	0.768661	0.199571	0.303416
546	C	0.723972	0.295456	0.024941
547	O	0.748394	0.326359	0.043342
548	O	0.744292	0.168691	0.284914
549	C	0.770789	0.033412	0.319006
550	C	0.744929	0.02569	0.019102
551	C	0.720491	0.490196	0.028957
552	C	0.722045	0.461729	0.009325
553	C	0.747918	0.46946	0.309251
554	H	0.702842	0.485222	0.054057
555	C	0.772355	0.00495	0.299377
556	H	0.790019	0.009944	0.274288
557	C	0.748029	0.442723	0.27871
558	H	0.723266	0.417903	0.278952
559	H	0.769291	0.437921	0.287896
560	H	0.752065	0.451956	0.244379
561	C	0.744817	0.052428	0.049635
562	H	0.769572	0.077256	0.049375
563	H	0.740799	0.043203	0.083969
564	H	0.723542	0.057213	0.040461
565	C	0.794351	0.067856	0.303389
566	C	0.698476	0.427285	0.024931
567	O	0.667635	0.420818	0.043512
568	O	0.825257	0.074362	0.284981
569	C	0.960493	0.236194	0.319244
570	C	0.968223	0.218052	0.019321
571	C	0.503707	0.22912	0.029215
572	C	0.532176	0.259121	0.00955
573	C	0.52445	0.277267	0.309468
574	H	0.508697	0.216421	0.054271
575	C	0.988955	0.266242	0.299645
576	H	0.983978	0.278889	0.274515
577	C	0.551183	0.304096	0.27891
578	H	0.575994	0.304136	0.279134
579	H	0.556007	0.330168	0.288092
580	H	0.541933	0.298897	0.244586
581	C	0.941478	0.191186	0.049839
582	H	0.916637	0.191086	0.049553
583	H	0.950684	0.196398	0.084181
584	H	0.936721	0.165134	0.040672
585	C	0.926052	0.225288	0.303605
586	C	0.56662	0.26997	0.025137
587	O	0.573106	0.24556	0.043561
588	O	0.919554	0.249646	0.285038
589	C	0.676978	0.309038	0.365864
590	N	0.641669	0.295895	0.365503
591	C	0.627214	0.316938	0.365964
592	N	0.649377	0.352245	0.365529
593	C	0.68488	0.366713	0.365924
594	N	0.698016	0.34454	0.365446
595	N	0.592224	0.304404	0.360995
596	H	0.585057	0.322017	0.357727
597	N	0.707322	0.401694	0.360845
598	H	0.732097	0.40886	0.357522
599	N	0.689536	0.286607	0.360826
600	H	0.671931	0.261824	0.357568
601	C	0.815689	0.186042	0.295822
602	N	0.851006	0.199233	0.296291
603	C	0.865514	0.178233	0.295899
604	N	0.843387	0.142916	0.296282
605	C	0.807882	0.128414	0.295814
606	N	0.794686	0.150537	0.296222
607	N	0.900506	0.190837	0.300966
608	H	0.907713	0.173257	0.304274
609	N	0.78547	0.09342	0.300823
610	H	0.760677	0.086216	0.304077
611	N	0.803108	0.208454	0.300836
612	H	0.820695	0.233239	0.304138
613	C	0.757763	0.223115	0.652389
614	C	0.775909	0.248993	0.352456
615	C	0.764837	0.273411	0.362345
616	C	0.73483	0.271868	0.342684
617	C	0.716685	0.245991	0.64261
618	H	0.777537	0.291102	0.387396
619	C	0.727714	0.221525	0.632791
620	H	0.715065	0.203894	0.607667
621	C	0.689844	0.24588	0.612063
622	H	0.689782	0.27064	0.612298
623	H	0.663777	0.224617	0.621241
624	H	0.69505	0.241845	0.577733
625	C	0.802772	0.249116	0.382984
626	H	0.80284	0.224359	0.382739
627	H	0.797583	0.253153	0.41732
628	H	0.828829	0.270383	0.373786
629	C	0.768661	0.199571	0.636749
630	C	0.723972	0.295456	0.358275
631	O	0.748394	0.326359	0.376675
632	O	0.744292	0.168691	0.618249
633	C	0.770789	0.033412	0.652339
634	C	0.744929	0.02569	0.352436
635	C	0.720491	0.490196	0.362292
636	C	0.722045	0.461729	0.342658
637	C	0.747918	0.46946	0.642584
638	H	0.702842	0.485222	0.387389
639	C	0.772355	0.00495	0.632712
640	H	0.790019	0.009944	0.607621
641	C	0.748029	0.442723	0.612043
642	H	0.723266	0.417903	0.612285
643	H	0.769291	0.437921	0.621228
644	H	0.752065	0.451956	0.577714
645	C	0.744817	0.052428	0.382967
646	H	0.769572	0.077256	0.382709
647	H	0.740799	0.043203	0.417303
648	H	0.723542	0.057213	0.373796
649	C	0.794351	0.067856	0.636722
650	C	0.698476	0.427285	0.358265
651	O	0.667635	0.420818	0.376847
652	O	0.825257	0.074362	0.618315
653	C	0.960493	0.236194	0.652578
654	C	0.968223	0.218052	0.352655
655	C	0.503707	0.22912	0.36255
656	C	0.532176	0.259121	0.342883
657	C	0.52445	0.277267	0.642803
658	H	0.508697	0.216421	0.387605
659	C	0.988955	0.266242	0.632977
660	H	0.983978	0.278889	0.60785
661	C	0.551183	0.304096	0.612245
662	H	0.575994	0.304136	0.612467
663	H	0.556007	0.330168	0.621427
664	H	0.541933	0.298897	0.577919
665	C	0.941478	0.191186	0.383173
666	H	0.916637	0.191086	0.382888
667	H	0.950684	0.196398	0.417515
668	H	0.936721	0.165134	0.374005
669	C	0.926052	0.225288	0.636938
670	C	0.56662	0.26997	0.35847
671	O	0.573106	0.24556	0.376894
672	O	0.919554	0.249646	0.618372
673	C	0.676978	0.309038	0.699197
674	N	0.641669	0.295895	0.698836
675	C	0.627214	0.316938	0.699297
676	N	0.649377	0.352245	0.698862
677	C	0.68488	0.366713	0.69926
678	N	0.698016	0.34454	0.698779
679	N	0.592224	0.304404	0.694328
680	H	0.585057	0.322017	0.69106
681	N	0.707322	0.401694	0.694178
682	H	0.732097	0.40886	0.690855
683	N	0.689536	0.286607	0.694162
684	H	0.671931	0.261824	0.690901
685	C	0.815689	0.186042	0.629156
686	N	0.851006	0.199233	0.629624
687	C	0.865514	0.178233	0.629232
688	N	0.843387	0.142916	0.629614
689	C	0.807882	0.128414	0.629149
690	N	0.794686	0.150537	0.629554
691	N	0.900506	0.190837	0.634301
692	H	0.907713	0.173257	0.637608
693	N	0.78547	0.09342	0.634158
694	H	0.760677	0.086216	0.637412
695	N	0.803108	0.208454	0.634171
696	H	0.820695	0.233239	0.637472
697	C	0.757763	0.223115	0.985722
698	C	0.775909	0.248993	0.685789
699	C	0.764837	0.273411	0.695678
700	C	0.73483	0.271868	0.676017
701	C	0.716685	0.245991	0.975943
702	H	0.777537	0.291102	0.720732
703	C	0.727714	0.221525	0.966124
704	H	0.715065	0.203894	0.941
705	C	0.689844	0.24588	0.945396
706	H	0.689782	0.27064	0.945631
707	H	0.663777	0.224617	0.954574
708	H	0.69505	0.241845	0.911067
709	C	0.802772	0.249116	0.716317
710	H	0.80284	0.224359	0.716072
711	H	0.797583	0.253153	0.750653
712	H	0.828829	0.270383	0.707122
713	C	0.768661	0.199571	0.970085
714	C	0.723972	0.295456	0.691608
715	O	0.748394	0.326359	0.710008
716	O	0.744292	0.168691	0.951582
717	C	0.770789	0.033412	0.985672
718	C	0.744929	0.02569	0.685769
719	C	0.720491	0.490196	0.695625
720	C	0.722045	0.461729	0.675994
721	C	0.747918	0.46946	0.975917
722	H	0.702842	0.485222	0.720726
723	C	0.772355	0.00495	0.966045
724	H	0.790019	0.009944	0.940954
725	C	0.748029	0.442723	0.945379
726	H	0.723266	0.417903	0.945621
727	H	0.769291	0.437921	0.954564
728	H	0.752065	0.451956	0.911047
729	C	0.744817	0.052428	0.716304
730	H	0.769572	0.077256	0.716042
731	H	0.740799	0.043203	0.750636
732	H	0.723542	0.057213	0.707129
733	C	0.794351	0.067856	0.970055
734	C	0.698476	0.427285	0.691598
735	O	0.667635	0.420818	0.71018
736	O	0.825257	0.074362	0.951648
737	C	0.960493	0.236194	0.985911
738	C	0.968223	0.218052	0.685988
739	C	0.503707	0.22912	0.695883
740	C	0.532176	0.259121	0.676216
741	C	0.52445	0.277267	0.976136
742	H	0.508697	0.216421	0.720938
743	C	0.988955	0.266242	0.966314
744	H	0.983978	0.278889	0.941183
745	C	0.551183	0.304096	0.945578
746	H	0.575994	0.304136	0.9458
747	H	0.556007	0.330168	0.95476
748	H	0.541933	0.298897	0.911252
749	C	0.941478	0.191186	0.716506
750	H	0.916637	0.191086	0.716221
751	H	0.950684	0.196398	0.750849
752	H	0.936721	0.165134	0.707341
753	C	0.926052	0.225288	0.970274
754	C	0.56662	0.26997	0.691803
755	O	0.573106	0.24556	0.710227
756	O	0.919554	0.249646	0.951705
757	C	0.676978	0.809037	0.032529
758	N	0.641669	0.795893	0.032168
759	C	0.627213	0.816936	0.032629
760	N	0.649378	0.852246	0.032194
761	C	0.68488	0.866712	0.032592
762	N	0.698016	0.844538	0.032113
763	N	0.592223	0.804403	0.027661
764	H	0.585058	0.822018	0.024393
765	N	0.707322	0.901693	0.027513
766	H	0.732095	0.908859	0.024188
767	N	0.689536	0.786609	0.027493
768	H	0.671933	0.761825	0.024233
769	C	0.81569	0.68604	0.962489
770	N	0.851007	0.699232	0.962957
771	C	0.865513	0.678233	0.962565
772	N	0.843386	0.642916	0.96295
773	C	0.807882	0.628413	0.962482
774	N	0.794687	0.650537	0.96289
775	N	0.900507	0.690838	0.967634
776	H	0.907714	0.673257	0.970941
777	N	0.785468	0.593419	0.967491
778	H	0.760678	0.586216	0.970745
779	N	0.803109	0.708453	0.967504
780	H	0.820696	0.733237	0.970805
781	C	0.757764	0.723114	0.319054
782	C	0.775908	0.748994	0.019123
783	C	0.764838	0.77341	0.029011
784	C	0.734832	0.771869	0.009351
785	C	0.716685	0.745992	0.309277
786	H	0.777538	0.791101	0.054064
787	C	0.727715	0.721523	0.299456
788	H	0.715063	0.703892	0.274333
789	C	0.689842	0.745879	0.278728
790	H	0.689782	0.770642	0.278963
791	H	0.663778	0.724617	0.287906
792	H	0.69505	0.741844	0.2444
793	C	0.80277	0.749115	0.04965
794	H	0.802838	0.724357	0.049406
795	H	0.797582	0.753152	0.083985
796	H	0.828829	0.770384	0.040453
797	C	0.76866	0.699571	0.303416
798	C	0.723973	0.795454	0.024941
799	O	0.748392	0.826358	0.043342
800	O	0.744291	0.668691	0.284914
801	C	0.77079	0.533413	0.319006
802	C	0.74493	0.525689	0.019102
803	C	0.720489	0.990195	0.028957
804	C	0.722043	0.961728	0.009325
805	C	0.74792	0.969462	0.309251
806	H	0.70284	0.985221	0.054057
807	C	0.772356	0.504949	0.299377
808	H	0.790017	0.509943	0.274288
809	C	0.748028	0.942722	0.27871
810	H	0.723267	0.917901	0.278952
811	H	0.769289	0.937919	0.287896
812	H	0.752063	0.951954	0.244379
813	C	0.744818	0.552429	0.049635
814	H	0.76957	0.577255	0.049375
815	H	0.740799	0.543202	0.083969
816	H	0.723541	0.557213	0.040461
817	C	0.794349	0.567855	0.303389
818	C	0.698476	0.927283	0.024931
819	O	0.667633	0.920817	0.043512
820	O	0.825258	0.574361	0.284981
821	C	0.960494	0.736194	0.319244
822	C	0.968221	0.718051	0.019321
823	C	0.503708	0.72912	0.029215
824	C	0.532175	0.75912	0.00955
825	C	0.52445	0.777266	0.309468
826	H	0.508697	0.716421	0.054271
827	C	0.988956	0.766241	0.299645
828	H	0.983978	0.778888	0.274515
829	C	0.551182	0.804095	0.27891
830	H	0.575995	0.804137	0.279134
831	H	0.556005	0.830167	0.288092
832	H	0.541933	0.798895	0.244586
833	C	0.941477	0.691185	0.049839
834	H	0.916637	0.691085	0.049553
835	H	0.950685	0.696398	0.084181
836	H	0.93672	0.665134	0.040672
837	C	0.926051	0.725288	0.303605
838	C	0.566618	0.769969	0.025137
839	O	0.573106	0.745561	0.043561
840	O	0.919553	0.749646	0.285038
841	C	0.676978	0.809037	0.365864
842	N	0.641669	0.795893	0.365503
843	C	0.627213	0.816936	0.365964
844	N	0.649378	0.852246	0.365529
845	C	0.68488	0.866712	0.365924
846	N	0.698016	0.844538	0.365446
847	N	0.592223	0.804403	0.360995
848	H	0.585058	0.822018	0.357727
849	N	0.707322	0.901693	0.360845
850	H	0.732095	0.908859	0.357522
851	N	0.689536	0.786609	0.360826
852	H	0.671933	0.761825	0.357568
853	C	0.81569	0.68604	0.295822
854	N	0.851007	0.699232	0.296291
855	C	0.865513	0.678233	0.295899
856	N	0.843386	0.642916	0.296282
857	C	0.807882	0.628413	0.295814
858	N	0.794687	0.650537	0.296222
859	N	0.900507	0.690838	0.300966
860	H	0.907714	0.673257	0.304274
861	N	0.785468	0.593419	0.300823
862	H	0.760678	0.586216	0.304077
863	N	0.803109	0.708453	0.300836
864	H	0.820696	0.733237	0.304138
865	C	0.757764	0.723114	0.652389
866	C	0.775908	0.748994	0.352456
867	C	0.764838	0.77341	0.362345
868	C	0.734832	0.771869	0.342684
869	C	0.716685	0.745992	0.64261
870	H	0.777538	0.791101	0.387396
871	C	0.727715	0.721523	0.632791
872	H	0.715063	0.703892	0.607667
873	C	0.689842	0.745879	0.612063
874	H	0.689782	0.770642	0.612298
875	H	0.663778	0.724617	0.621241
876	H	0.69505	0.741844	0.577733
877	C	0.80277	0.749115	0.382984
878	H	0.802838	0.724357	0.382739
879	H	0.797582	0.753152	0.41732
880	H	0.828829	0.770384	0.373786
881	C	0.76866	0.699571	0.636749
882	C	0.723973	0.795454	0.358275
883	O	0.748392	0.826358	0.376675
884	O	0.744291	0.668691	0.618249
885	C	0.77079	0.533413	0.652339
886	C	0.74493	0.525689	0.352436
887	C	0.720489	0.990195	0.362292
888	C	0.722043	0.961728	0.342658
889	C	0.74792	0.969462	0.642584
890	H	0.70284	0.985221	0.387389
891	C	0.772356	0.504949	0.632712
892	H	0.790017	0.509943	0.607621
893	C	0.748028	0.942722	0.612043
894	H	0.723267	0.917901	0.612285
895	H	0.769289	0.937919	0.621228
896	H	0.752063	0.951954	0.577714
897	C	0.744818	0.552429	0.382967
898	H	0.76957	0.577255	0.382709
899	H	0.740799	0.543202	0.417303
900	H	0.723541	0.557213	0.373796
901	C	0.794349	0.567855	0.636722
902	C	0.698476	0.927283	0.358265
903	O	0.667633	0.920817	0.376847
904	O	0.825258	0.574361	0.618315
905	C	0.960494	0.736194	0.652578
906	C	0.968221	0.718051	0.352655
907	C	0.503708	0.72912	0.36255
908	C	0.532175	0.75912	0.342883
909	C	0.52445	0.777266	0.642803
910	H	0.508697	0.716421	0.387605
911	C	0.988956	0.766241	0.632977
912	H	0.983978	0.778888	0.60785
913	C	0.551182	0.804095	0.612245
914	H	0.575995	0.804137	0.612467
915	H	0.556005	0.830167	0.621427
916	H	0.541933	0.798895	0.577919
917	C	0.941477	0.691185	0.383173
918	H	0.916637	0.691085	0.382888
919	H	0.950685	0.696398	0.417515
920	H	0.93672	0.665134	0.374005
921	C	0.926051	0.725288	0.636938
922	C	0.566618	0.769969	0.35847
923	O	0.573106	0.745561	0.376894
924	O	0.919553	0.749646	0.618372
925	C	0.676978	0.809037	0.699197
926	N	0.641669	0.795893	0.698836
927	C	0.627213	0.816936	0.699297
928	N	0.649378	0.852246	0.698862
929	C	0.68488	0.866712	0.69926
930	N	0.698016	0.844538	0.698779
931	N	0.592223	0.804403	0.694328
932	H	0.585058	0.822018	0.69106
933	N	0.707322	0.901693	0.694178
934	H	0.732095	0.908859	0.690855
935	N	0.689536	0.786609	0.694162
936	H	0.671933	0.761825	0.690901
937	C	0.81569	0.68604	0.629156
938	N	0.851007	0.699232	0.629624
939	C	0.865513	0.678233	0.629232
940	N	0.843386	0.642916	0.629614
941	C	0.807882	0.628413	0.629149
942	N	0.794687	0.650537	0.629554
943	N	0.900507	0.690838	0.634301
944	H	0.907714	0.673257	0.637608
945	N	0.785468	0.593419	0.634158
946	H	0.760678	0.586216	0.637412
947	N	0.803109	0.708453	0.634171
948	H	0.820696	0.733237	0.637472
949	C	0.757764	0.723114	0.985722
950	C	0.775908	0.748994	0.685789
951	C	0.764838	0.77341	0.695678
952	C	0.734832	0.771869	0.676017
953	C	0.716685	0.745992	0.975943
954	H	0.777538	0.791101	0.720732
955	C	0.727715	0.721523	0.966124
956	H	0.715063	0.703892	0.941
957	C	0.689842	0.745879	0.945396
958	H	0.689782	0.770642	0.945631
959	H	0.663778	0.724617	0.954574
960	H	0.69505	0.741844	0.911067
961	C	0.80277	0.749115	0.716317
962	H	0.802838	0.724357	0.716072
963	H	0.797582	0.753152	0.750653
964	H	0.828829	0.770384	0.707122
965	C	0.76866	0.699571	0.970085
966	C	0.723973	0.795454	0.691608
967	O	0.748392	0.826358	0.710008
968	O	0.744291	0.668691	0.951582
969	C	0.77079	0.533413	0.985672
970	C	0.74493	0.525689	0.685769
971	C	0.720489	0.990195	0.695625
972	C	0.722043	0.961728	0.675994
973	C	0.74792	0.969462	0.975917
974	H	0.70284	0.985221	0.720726
975	C	0.772356	0.504949	0.966045
976	H	0.790017	0.509943	0.940954
977	C	0.748028	0.942722	0.945379
978	H	0.723267	0.917901	0.945621
979	H	0.769289	0.937919	0.954564
980	H	0.752063	0.951954	0.911047
981	C	0.744818	0.552429	0.716304
982	H	0.76957	0.577255	0.716042
983	H	0.740799	0.543202	0.750636
984	H	0.723541	0.557213	0.707129
985	C	0.794349	0.567855	0.970055
986	C	0.698476	0.927283	0.691598
987	O	0.667633	0.920817	0.71018
988	O	0.825258	0.574361	0.951648
989	C	0.960494	0.736194	0.985911
990	C	0.968221	0.718051	0.685988
991	C	0.503708	0.72912	0.695883
992	C	0.532175	0.75912	0.676216
993	C	0.52445	0.777266	0.976136
994	H	0.508697	0.716421	0.720938
995	C	0.988956	0.766241	0.966314
996	H	0.983978	0.778888	0.941183
997	C	0.551182	0.804095	0.945578
998	H	0.575995	0.804137	0.9458
999	H	0.556005	0.830167	0.95476
1000	H	0.541933	0.798895	0.911252
1001	C	0.941477	0.691185	0.716506
1002	H	0.916637	0.691085	0.716221
1003	H	0.950685	0.696398	0.750849
1004	H	0.93672	0.665134	0.707341
1005	C	0.926051	0.725288	0.970274
1006	C	0.566618	0.769969	0.691803
1007	O	0.573106	0.745561	0.710227
1008	O	0.919553	0.749646	0.951705
