data_C720H576N144O144_2018-02-15_10:40:12
#******************************************
#
# CIF file created by Zeo++
# Zeo++ is an open source package to
# analyze microporous materials
#
#*******************************************

_cell_length_a		45.3398   
_cell_length_b		45.361   
_cell_length_c		29.6828   
_cell_angle_alpha		90   
_cell_angle_beta		90   
_cell_angle_gamma		119.989   

_symmetry_space_group_name_H-M		'P1'
_symmetry_Int_Tables_number		1
_symmetry_cell_setting		Monoclinic

loop_
_symmetry_equiv_pos_as_xyz
'+x,+y,+z'

loop_
_atom_site_label
_atom_site_type_symbol
_atom_site_fract_x
_atom_site_fract_y
_atom_site_fract_z
1	C	0.041918	0.021442	0.005493
2	C	0.023934	0.039566	0.005143
3	C	0.022467	0.485378	0.005126
4	H	0.034909	0.471789	0.004415
5	H	0.037525	0.065587	0.004452
6	C	0.098706	0.029974	0.031891
7	C	0.078505	0.03936	0.005728
8	N	0.095917	0.067844	0.313342
9	O	0.085099	0.002768	0.060611
10	C	0.080394	0.011531	0.105558
11	H	0.069447	0.988502	0.125988
12	H	0.062829	0.521458	0.106109
13	H	0.104624	0.030136	0.120738
14	C	0.041918	0.021442	0.338825
15	C	0.023934	0.039566	0.338475
16	C	0.022467	0.485378	0.338458
17	H	0.034909	0.471789	0.337747
18	H	0.037525	0.065587	0.337784
19	C	0.098706	0.029974	0.365224
20	C	0.078505	0.03936	0.339061
21	N	0.095917	0.067844	0.646677
22	O	0.085099	0.002768	0.393945
23	C	0.080394	0.011531	0.43889
24	H	0.069447	0.988502	0.459323
25	H	0.062829	0.521458	0.439442
26	H	0.104624	0.030136	0.45407
27	C	0.041918	0.021442	0.672159
28	C	0.023934	0.039566	0.671809
29	C	0.022467	0.485378	0.671792
30	H	0.034909	0.471789	0.671081
31	H	0.037525	0.065587	0.671118
32	C	0.098706	0.029974	0.698558
33	C	0.078505	0.03936	0.672395
34	N	0.095917	0.067844	0.980011
35	O	0.085099	0.002768	0.727279
36	C	0.080394	0.011531	0.772224
37	H	0.069447	0.988502	0.792657
38	H	0.062829	0.521458	0.772776
39	H	0.104624	0.030136	0.787404
40	C	0.041919	0.521442	0.005493
41	C	0.023934	0.539565	0.005143
42	C	0.022467	0.985376	0.005126
43	H	0.034909	0.97179	0.004415
44	H	0.037527	0.565588	0.004452
45	C	0.098707	0.529974	0.031891
46	C	0.078505	0.539359	0.005728
47	N	0.095917	0.567843	0.313342
48	O	0.085097	0.502768	0.060611
49	C	0.080394	0.511531	0.105558
50	H	0.069447	0.488501	0.125988
51	H	0.062828	0.021457	0.106109
52	H	0.104625	0.530137	0.120738
53	C	0.041919	0.521442	0.338825
54	C	0.023934	0.539565	0.338475
55	C	0.022467	0.985376	0.338458
56	H	0.034909	0.97179	0.337747
57	H	0.037527	0.565588	0.337784
58	C	0.098707	0.529974	0.365224
59	C	0.078505	0.539359	0.339061
60	N	0.095917	0.567843	0.646677
61	O	0.085097	0.502768	0.393945
62	C	0.080394	0.511531	0.43889
63	H	0.069447	0.488501	0.459323
64	H	0.062828	0.021457	0.439442
65	H	0.104625	0.530137	0.45407
66	C	0.041919	0.521442	0.672159
67	C	0.023934	0.539565	0.671809
68	C	0.022467	0.985376	0.671792
69	H	0.034909	0.97179	0.671081
70	H	0.037527	0.565588	0.671118
71	C	0.098707	0.529974	0.698558
72	C	0.078505	0.539359	0.672395
73	N	0.095917	0.567843	0.980011
74	O	0.085097	0.502768	0.727279
75	C	0.080394	0.511531	0.772224
76	H	0.069447	0.488501	0.792657
77	H	0.062828	0.021457	0.772776
78	H	0.104625	0.530137	0.787404
79	H	0.020691	0.083202	0.12619
80	H	0.020691	0.083202	0.459525
81	H	0.020691	0.083202	0.792859
82	H	0.020691	0.583202	0.126189
83	H	0.020691	0.583202	0.459525
84	H	0.020691	0.583202	0.792859
85	C	0.187232	0.095932	0.004405
86	C	0.150673	0.077683	0.337013
87	N	0.133277	0.049202	0.029413
88	C	0.130475	0.087042	0.310808
89	O	0.144078	0.114322	0.282213
90	C	0.148733	0.105646	0.237195
91	H	0.159689	0.128718	0.216851
92	H	0.124483	0.087092	0.222007
93	H	0.166274	0.095691	0.236516
94	C	0.187232	0.095932	0.337737
95	C	0.150673	0.077683	0.670347
96	N	0.133277	0.049202	0.362745
97	C	0.130475	0.087042	0.644143
98	O	0.144078	0.114322	0.615548
99	C	0.148733	0.105646	0.570528
100	H	0.159689	0.128718	0.550183
101	H	0.124483	0.087092	0.555341
102	H	0.166274	0.095691	0.569851
103	C	0.187232	0.095932	0.671071
104	C	0.150673	0.077683	0.003681
105	N	0.133277	0.049202	0.696079
106	C	0.130475	0.087042	0.977477
107	O	0.144078	0.114322	0.948881
108	C	0.148733	0.105646	0.903862
109	H	0.159689	0.128718	0.883517
110	H	0.124483	0.087092	0.888675
111	H	0.166274	0.095691	0.903185
112	C	0.187233	0.595933	0.004405
113	C	0.150673	0.577683	0.337013
114	N	0.133277	0.549201	0.029413
115	C	0.130476	0.587042	0.310808
116	O	0.144078	0.61432	0.282213
117	C	0.148734	0.605646	0.237195
118	H	0.159688	0.628717	0.216851
119	H	0.124483	0.587091	0.222007
120	H	0.166275	0.595691	0.236516
121	C	0.187233	0.595933	0.337737
122	C	0.150673	0.577683	0.670347
123	N	0.133277	0.549201	0.362745
124	C	0.130476	0.587042	0.644143
125	O	0.144078	0.61432	0.615548
126	C	0.148734	0.605646	0.570528
127	H	0.159688	0.628717	0.550183
128	H	0.124483	0.587091	0.555341
129	H	0.166275	0.595691	0.569851
130	C	0.187233	0.595933	0.671071
131	C	0.150673	0.577683	0.003681
132	N	0.133277	0.549201	0.696079
133	C	0.130476	0.587042	0.977477
134	O	0.144078	0.61432	0.948881
135	C	0.148734	0.605646	0.903862
136	H	0.159688	0.628717	0.883517
137	H	0.124483	0.587091	0.888675
138	H	0.166275	0.595691	0.903185
139	C	0.241602	0.095532	0.00574
140	C	0.242188	0.150079	0.005658
141	C	0.2062	0.13215	0.005065
142	C	0.205595	0.078056	0.005251
143	H	0.193826	0.145792	0.006102
144	H	0.192725	0.052011	0.00457
145	C	0.245375	0.05292	0.233636
146	H	0.238695	0.059592	0.201457
147	H	0.221838	0.037278	0.252417
148	C	0.246327	0.19587	0.111644
149	H	0.239523	0.182344	0.143693
150	H	0.222861	0.188112	0.09275
151	C	0.241602	0.095532	0.339075
152	C	0.242188	0.150079	0.33899
153	C	0.2062	0.13215	0.338398
154	C	0.205595	0.078056	0.338583
155	H	0.193826	0.145792	0.339435
156	H	0.192725	0.052011	0.337902
157	C	0.245375	0.05292	0.566971
158	H	0.238695	0.059592	0.53479
159	H	0.221838	0.037278	0.585749
160	C	0.246327	0.19587	0.444978
161	H	0.239523	0.182344	0.477026
162	H	0.222861	0.188112	0.426085
163	C	0.241602	0.095532	0.672409
164	C	0.242188	0.150079	0.672324
165	C	0.2062	0.13215	0.671731
166	C	0.205595	0.078056	0.671917
167	H	0.193826	0.145792	0.672769
168	H	0.192725	0.052011	0.671236
169	C	0.245375	0.05292	0.900305
170	H	0.238695	0.059592	0.868124
171	H	0.221838	0.037278	0.919083
172	C	0.246327	0.19587	0.778312
173	H	0.239523	0.182344	0.81036
174	H	0.222861	0.188112	0.759418
175	C	0.241603	0.595534	0.00574
176	C	0.242188	0.650079	0.005658
177	C	0.206201	0.63215	0.005065
178	C	0.205596	0.578057	0.005251
179	H	0.193826	0.645793	0.006102
180	H	0.192726	0.552011	0.00457
181	C	0.245376	0.55292	0.233636
182	H	0.238695	0.559591	0.201457
183	H	0.221839	0.537279	0.252417
184	C	0.246327	0.695869	0.111644
185	H	0.239523	0.682343	0.143693
186	H	0.222861	0.688111	0.09275
187	C	0.241603	0.595534	0.339075
188	C	0.242188	0.650079	0.33899
189	C	0.206201	0.63215	0.338398
190	C	0.205596	0.578057	0.338583
191	H	0.193826	0.645793	0.339435
192	H	0.192726	0.552011	0.337902
193	C	0.245376	0.55292	0.566971
194	H	0.238695	0.559591	0.53479
195	H	0.221839	0.537279	0.585749
196	C	0.246327	0.695869	0.444978
197	H	0.239523	0.682343	0.477026
198	H	0.222861	0.688111	0.426085
199	C	0.241603	0.595534	0.672409
200	C	0.242188	0.650079	0.672324
201	C	0.206201	0.63215	0.671731
202	C	0.205596	0.578057	0.671917
203	H	0.193826	0.645793	0.672769
204	H	0.192726	0.552011	0.671236
205	C	0.245376	0.55292	0.900305
206	H	0.238695	0.559591	0.868124
207	H	0.221839	0.537279	0.919083
208	C	0.246327	0.695869	0.778312
209	H	0.239523	0.682343	0.81036
210	H	0.222861	0.688111	0.759418
211	C	0.487854	0.022952	0.005528
212	C	0.469724	0.486857	0.00515
213	C	0.486354	0.467406	0.005502
214	H	0.443691	0.474428	0.004462
215	C	0.259372	0.131403	0.005858
216	H	0.285528	0.144276	0.006219
217	C	0.413978	0.148718	0.005754
218	C	0.37809	0.130628	0.005861
219	C	0.359397	0.094782	0.005651
220	C	0.377318	0.076721	0.005045
221	C	0.413549	0.093954	0.004382
222	C	0.431448	0.130181	0.005244
223	H	0.36366	0.050715	0.006073
224	H	0.457507	0.14334	0.004563
225	H	0.365213	0.143907	0.006228
226	C	0.360726	0.267806	0.005744
227	C	0.378836	0.25003	0.005802
228	C	0.414701	0.267188	0.005591
229	C	0.432756	0.30316	0.005022
230	C	0.415505	0.322141	0.004395
231	C	0.379259	0.303799	0.005264
232	H	0.458774	0.315513	0.006021
233	H	0.36608	0.316676	0.004624
234	H	0.365557	0.223886	0.006146
235	C	0.431766	0.075613	0.336989
236	N	0.460205	0.086609	0.029474
237	C	0.479369	0.071199	0.031988
238	C	0.469957	0.041637	0.005785
239	N	0.441516	0.030655	0.31331
240	C	0.42238	0.046082	0.310741
241	O	0.395133	0.032495	0.282067
242	O	0.506542	0.084709	0.060785
243	C	0.403909	0.045882	0.237088
244	H	0.380858	0.033834	0.216675
245	H	0.422465	0.040165	0.221932
246	H	0.41392	0.073375	0.23647
247	C	0.497684	0.071187	0.105692
248	H	0.520692	0.083202	0.12619
249	H	0.987707	0.043698	0.106181
250	H	0.479074	0.576826	0.120843
251	C	0.433819	0.358686	0.337013
252	N	0.422759	0.376096	0.029446
253	C	0.438113	0.410653	0.031934
254	C	0.467689	0.43083	0.005748
255	N	0.478736	0.413407	0.313322
256	C	0.463363	0.37886	0.310779
257	O	0.477011	0.365245	0.282139
258	O	0.424541	0.424276	0.060692
259	C	0.463642	0.360608	0.237144
260	H	0.47574	0.349642	0.216761
261	H	0.469329	0.384854	0.221973
262	H	0.436143	0.343093	0.236502
263	C	0.438045	0.428967	0.105617
264	H	0.42598	0.439924	0.126081
265	H	0.46554	0.446509	0.106132
266	H	0.932431	0.404743	0.120785
267	C	0.323412	0.079189	0.006679
268	N	0.308258	0.080128	0.300891
269	C	0.27736	0.078122	0.298236
270	C	0.261558	0.079451	0.338741
271	N	0.277702	0.08045	0.04449
272	C	0.306469	0.078241	0.047162
273	O	0.322299	0.084059	0.088049
274	O	0.267546	0.08391	0.257184
275	C	0.313575	0.0531	0.111615
276	H	0.327103	0.059811	0.143667
277	H	0.321341	0.037408	0.092711
278	H	0.286273	0.038371	0.118671
279	H	0.257947	0.038154	0.226833
280	C	0.430305	0.246794	0.006556
281	N	0.429409	0.230741	0.300771
282	C	0.431422	0.20186	0.298199
283	C	0.430063	0.184746	0.338731
284	N	0.429025	0.199895	0.044459
285	C	0.431225	0.230858	0.047101
286	O	0.425387	0.240884	0.087964
287	O	0.425683	0.186251	0.257163
288	C	0.456352	0.26311	0.11155
289	H	0.449624	0.269942	0.143579
290	H	0.472072	0.28655	0.092636
291	H	0.47107	0.250533	0.118652
292	C	0.456717	0.195084	0.233682
293	H	0.450082	0.181724	0.201513
294	H	0.472361	0.187221	0.252522
295	H	0.471477	0.222409	0.226862
296	C	0.262564	0.18605	0.006696
297	N	0.278654	0.201204	0.300909
298	C	0.307543	0.232082	0.298254
299	C	0.324685	0.247868	0.338755
300	N	0.309547	0.231726	0.044501
301	C	0.27857	0.202977	0.047176
302	O	0.268572	0.187149	0.08806
303	O	0.323136	0.241892	0.257197
304	H	0.258888	0.223159	0.118707
305	C	0.31431	0.264072	0.233673
306	H	0.327656	0.270748	0.201489
307	H	0.322211	0.287598	0.252465
308	H	0.28697	0.251525	0.226883
309	C	0.487854	0.022952	0.338862
310	C	0.469724	0.486857	0.338482
311	C	0.486354	0.467406	0.338835
312	H	0.443691	0.474428	0.337794
313	C	0.259372	0.131403	0.339193
314	H	0.285528	0.144276	0.339553
315	C	0.413978	0.148718	0.339088
316	C	0.37809	0.130628	0.339196
317	C	0.359397	0.094782	0.338984
318	C	0.377318	0.076721	0.338381
319	C	0.413549	0.093954	0.337714
320	C	0.431448	0.130181	0.338576
321	H	0.36366	0.050715	0.339408
322	H	0.457507	0.14334	0.337896
323	H	0.365213	0.143907	0.339563
324	C	0.360726	0.267806	0.339078
325	C	0.378836	0.25003	0.339135
326	C	0.414701	0.267188	0.338923
327	C	0.432756	0.30316	0.338354
328	C	0.415505	0.322141	0.33773
329	C	0.379259	0.303799	0.338596
330	H	0.458774	0.315513	0.339354
331	H	0.36608	0.316676	0.33796
332	H	0.365557	0.223886	0.339479
333	C	0.431766	0.075613	0.670323
334	N	0.460205	0.086609	0.362809
335	C	0.479369	0.071199	0.365322
336	C	0.469957	0.041637	0.339118
337	N	0.441516	0.030655	0.646643
338	C	0.42238	0.046082	0.644076
339	O	0.395133	0.032495	0.615403
340	O	0.506542	0.084709	0.39412
341	C	0.403909	0.045882	0.57042
342	H	0.380858	0.033834	0.550008
343	H	0.422465	0.040165	0.555267
344	H	0.41392	0.073375	0.569804
345	C	0.497684	0.071187	0.439025
346	H	0.520692	0.083202	0.459525
347	H	0.987707	0.043698	0.439513
348	H	0.479074	0.576826	0.454175
349	C	0.433819	0.358686	0.670347
350	N	0.422759	0.376096	0.362779
351	C	0.438113	0.410653	0.365268
352	C	0.467689	0.43083	0.339081
353	N	0.478736	0.413407	0.646656
354	C	0.463363	0.37886	0.644113
355	O	0.477011	0.365245	0.615473
356	O	0.424541	0.424276	0.394026
357	C	0.463642	0.360608	0.570478
358	H	0.47574	0.349642	0.550096
359	H	0.469329	0.384854	0.555307
360	H	0.436143	0.343093	0.569834
361	C	0.438045	0.428967	0.438951
362	H	0.42598	0.439924	0.459414
363	H	0.46554	0.446509	0.439466
364	H	0.932431	0.404743	0.454118
365	C	0.323412	0.079189	0.340015
366	N	0.308258	0.080128	0.634225
367	C	0.27736	0.078122	0.63157
368	C	0.261558	0.079451	0.672075
369	N	0.277702	0.08045	0.377824
370	C	0.306469	0.078241	0.380496
371	O	0.322299	0.084059	0.421381
372	O	0.267546	0.08391	0.590516
373	C	0.313575	0.0531	0.444947
374	H	0.327103	0.059811	0.476999
375	H	0.321341	0.037408	0.426044
376	H	0.286273	0.038371	0.452005
377	H	0.257947	0.038154	0.560169
378	C	0.430305	0.246794	0.33989
379	N	0.429409	0.230741	0.634104
380	C	0.431422	0.20186	0.631533
381	C	0.430063	0.184746	0.672065
382	N	0.429025	0.199895	0.377794
383	C	0.431225	0.230858	0.380435
384	O	0.425387	0.240884	0.421297
385	O	0.425683	0.186251	0.590496
386	C	0.456352	0.26311	0.444883
387	H	0.449624	0.269942	0.476912
388	H	0.472072	0.28655	0.42597
389	H	0.47107	0.250533	0.451985
390	C	0.456717	0.195084	0.567014
391	H	0.450082	0.181724	0.534848
392	H	0.472361	0.187221	0.585857
393	H	0.471477	0.222409	0.560196
394	C	0.262564	0.18605	0.340028
395	N	0.278654	0.201204	0.634242
396	C	0.307543	0.232082	0.631587
397	C	0.324685	0.247868	0.672089
398	N	0.309547	0.231726	0.377834
399	C	0.27857	0.202977	0.380509
400	O	0.268572	0.187149	0.421395
401	O	0.323136	0.241892	0.59053
402	H	0.258888	0.223159	0.452042
403	C	0.31431	0.264072	0.567008
404	H	0.327656	0.270748	0.534824
405	H	0.322211	0.287598	0.5858
406	H	0.28697	0.251525	0.560216
407	C	0.487854	0.022952	0.672196
408	C	0.469724	0.486857	0.671816
409	C	0.486354	0.467406	0.672169
410	H	0.443691	0.474428	0.671128
411	C	0.259372	0.131403	0.672527
412	H	0.285528	0.144276	0.672887
413	C	0.413978	0.148718	0.672422
414	C	0.37809	0.130628	0.67253
415	C	0.359397	0.094782	0.672318
416	C	0.377318	0.076721	0.671715
417	C	0.413549	0.093954	0.671048
418	C	0.431448	0.130181	0.67191
419	H	0.36366	0.050715	0.672742
420	H	0.457507	0.14334	0.67123
421	H	0.365213	0.143907	0.672897
422	C	0.360726	0.267806	0.672412
423	C	0.378836	0.25003	0.672469
424	C	0.414701	0.267188	0.672257
425	C	0.432756	0.30316	0.671688
426	C	0.415505	0.322141	0.671061
427	C	0.379259	0.303799	0.67193
428	H	0.458774	0.315513	0.672688
429	H	0.36608	0.316676	0.671294
430	H	0.365557	0.223886	0.672813
431	C	0.431766	0.075613	0.003657
432	N	0.460205	0.086609	0.696143
433	C	0.479369	0.071199	0.698656
434	C	0.469957	0.041637	0.672452
435	N	0.441516	0.030655	0.979977
436	C	0.42238	0.046082	0.97741
437	O	0.395133	0.032495	0.948733
438	O	0.506542	0.084709	0.727454
439	C	0.403909	0.045882	0.903754
440	H	0.380858	0.033834	0.883342
441	H	0.422465	0.040165	0.888601
442	H	0.41392	0.073375	0.903138
443	C	0.497684	0.071187	0.772359
444	H	0.520692	0.083202	0.792859
445	H	0.987707	0.043698	0.772847
446	H	0.479074	0.576826	0.787509
447	C	0.433819	0.358686	0.003681
448	N	0.422759	0.376096	0.696113
449	C	0.438113	0.410653	0.698602
450	C	0.467689	0.43083	0.672415
451	N	0.478736	0.413407	0.97999
452	C	0.463363	0.37886	0.977447
453	O	0.477011	0.365245	0.948807
454	O	0.424541	0.424276	0.72736
455	C	0.463642	0.360608	0.903812
456	H	0.47574	0.349642	0.88343
457	H	0.469329	0.384854	0.888641
458	H	0.436143	0.343093	0.903168
459	C	0.438045	0.428967	0.772285
460	H	0.42598	0.439924	0.792748
461	H	0.46554	0.446509	0.7728
462	H	0.932431	0.404743	0.787452
463	C	0.323412	0.079189	0.673349
464	N	0.308258	0.080128	0.967559
465	C	0.27736	0.078122	0.964904
466	C	0.261558	0.079451	0.005407
467	N	0.277702	0.08045	0.711158
468	C	0.306469	0.078241	0.71383
469	O	0.322299	0.084059	0.754715
470	O	0.267546	0.08391	0.92385
471	C	0.313575	0.0531	0.778281
472	H	0.327103	0.059811	0.810333
473	H	0.321341	0.037408	0.759378
474	H	0.286273	0.038371	0.785339
475	H	0.257947	0.038154	0.893503
476	C	0.430305	0.246794	0.673224
477	N	0.429409	0.230741	0.967438
478	C	0.431422	0.20186	0.964867
479	C	0.430063	0.184746	0.005399
480	N	0.429025	0.199895	0.711125
481	C	0.431225	0.230858	0.713769
482	O	0.425387	0.240884	0.754631
483	O	0.425683	0.186251	0.92383
484	C	0.456352	0.26311	0.778217
485	H	0.449624	0.269942	0.810246
486	H	0.472072	0.28655	0.759304
487	H	0.47107	0.250533	0.785319
488	C	0.456717	0.195084	0.900348
489	H	0.450082	0.181724	0.868182
490	H	0.472361	0.187221	0.919191
491	H	0.471477	0.222409	0.89353
492	C	0.262564	0.18605	0.673362
493	N	0.278654	0.201204	0.967576
494	C	0.307543	0.232082	0.964921
495	C	0.324685	0.247868	0.005421
496	N	0.309547	0.231726	0.711168
497	C	0.27857	0.202977	0.713843
498	O	0.268572	0.187149	0.754729
499	O	0.323136	0.241892	0.923864
500	H	0.258888	0.223159	0.785376
501	C	0.31431	0.264072	0.900342
502	H	0.327656	0.270748	0.868155
503	H	0.322211	0.287598	0.919134
504	H	0.28697	0.251525	0.89355
505	C	0.487856	0.522952	0.005528
506	C	0.469725	0.986855	0.00515
507	C	0.486354	0.967404	0.005502
508	H	0.443692	0.974429	0.004462
509	C	0.259372	0.631402	0.005858
510	H	0.285529	0.644276	0.006219
511	C	0.413978	0.648717	0.005754
512	C	0.378091	0.630628	0.005861
513	C	0.359397	0.594783	0.005651
514	C	0.377318	0.576721	0.005045
515	C	0.41355	0.593953	0.004382
516	C	0.431449	0.63018	0.005244
517	H	0.363659	0.550713	0.006073
518	H	0.457506	0.643339	0.004563
519	H	0.365215	0.643907	0.006228
520	C	0.360728	0.767807	0.005744
521	C	0.378837	0.750031	0.005802
522	C	0.414701	0.767188	0.005591
523	C	0.432755	0.803159	0.005022
524	C	0.415503	0.822139	0.004395
525	C	0.379261	0.8038	0.005264
526	H	0.458774	0.815511	0.006021
527	H	0.366081	0.816677	0.004627
528	H	0.365557	0.723885	0.006146
529	C	0.431766	0.575614	0.336989
530	N	0.460205	0.58661	0.029474
531	C	0.47937	0.5712	0.031988
532	C	0.469956	0.541637	0.005785
533	N	0.441516	0.530654	0.31331
534	C	0.42238	0.546081	0.310741
535	O	0.395134	0.532494	0.282067
536	O	0.506542	0.584708	0.060785
537	C	0.40391	0.545882	0.237088
538	H	0.380859	0.533833	0.216675
539	H	0.422465	0.540166	0.221932
540	H	0.413919	0.573374	0.23647
541	C	0.497685	0.571188	0.105692
542	H	0.520691	0.583202	0.126189
543	H	0.987708	0.543699	0.106181
544	H	0.479074	0.076827	0.120843
545	C	0.43382	0.858687	0.337013
546	N	0.422759	0.876097	0.029446
547	C	0.438114	0.910654	0.031934
548	C	0.46769	0.930831	0.005748
549	N	0.478736	0.913408	0.313322
550	C	0.463363	0.878861	0.310779
551	O	0.477013	0.865246	0.282139
552	O	0.424541	0.924274	0.060692
553	C	0.463642	0.860606	0.237144
554	H	0.475739	0.849641	0.216761
555	H	0.469331	0.884855	0.221973
556	H	0.436143	0.843092	0.236502
557	C	0.438046	0.928968	0.105617
558	H	0.42598	0.939922	0.126081
559	H	0.46554	0.946507	0.106132
560	H	0.93243	0.904741	0.120785
561	C	0.323414	0.57919	0.006679
562	N	0.308258	0.580127	0.300891
563	C	0.27736	0.578121	0.298236
564	C	0.261558	0.57945	0.338741
565	N	0.277701	0.58045	0.04449
566	C	0.30647	0.578241	0.047162
567	O	0.3223	0.584059	0.088049
568	O	0.267546	0.583909	0.257184
569	C	0.313576	0.553101	0.111615
570	H	0.327103	0.55981	0.143667
571	H	0.321342	0.537409	0.092711
572	H	0.286273	0.538371	0.118671
573	H	0.257947	0.538155	0.226833
574	C	0.430306	0.746793	0.006556
575	N	0.42941	0.730742	0.300771
576	C	0.431422	0.701861	0.298199
577	C	0.430063	0.684746	0.338731
578	N	0.429027	0.699896	0.044459
579	C	0.431225	0.730857	0.047101
580	O	0.425387	0.740885	0.087964
581	O	0.425683	0.68625	0.257163
582	C	0.456351	0.763108	0.11155
583	H	0.449625	0.76994	0.143579
584	H	0.472071	0.786548	0.092636
585	H	0.47107	0.750532	0.118652
586	C	0.456716	0.695083	0.233682
587	H	0.450081	0.681722	0.201513
588	H	0.472361	0.68722	0.252522
589	H	0.471478	0.722409	0.226862
590	C	0.262564	0.686049	0.006696
591	N	0.278654	0.701204	0.300909
592	C	0.307543	0.732081	0.298254
593	C	0.324685	0.747867	0.338755
594	N	0.309547	0.731725	0.044501
595	C	0.278571	0.702978	0.047176
596	O	0.268572	0.687149	0.08806
597	O	0.323136	0.741891	0.257197
598	H	0.258889	0.72316	0.118707
599	C	0.314311	0.764073	0.233673
600	H	0.327657	0.770749	0.201489
601	H	0.32221	0.787597	0.252465
602	H	0.28697	0.751525	0.226883
603	C	0.487856	0.522952	0.338862
604	C	0.469725	0.986855	0.338482
605	C	0.486354	0.967404	0.338835
606	H	0.443692	0.974429	0.337794
607	C	0.259372	0.631402	0.339193
608	H	0.285529	0.644276	0.339553
609	C	0.413978	0.648717	0.339088
610	C	0.378091	0.630628	0.339196
611	C	0.359397	0.594783	0.338984
612	C	0.377318	0.576721	0.338381
613	C	0.41355	0.593953	0.337714
614	C	0.431449	0.63018	0.338576
615	H	0.363659	0.550713	0.339408
616	H	0.457506	0.643339	0.337896
617	H	0.365215	0.643907	0.339563
618	C	0.360728	0.767807	0.339078
619	C	0.378837	0.750031	0.339135
620	C	0.414701	0.767188	0.338923
621	C	0.432755	0.803159	0.338354
622	C	0.415503	0.822139	0.33773
623	C	0.379261	0.8038	0.338596
624	H	0.458774	0.815511	0.339354
625	H	0.366081	0.816677	0.33796
626	H	0.365557	0.723885	0.339479
627	C	0.431766	0.575614	0.670323
628	N	0.460205	0.58661	0.362809
629	C	0.47937	0.5712	0.365322
630	C	0.469956	0.541637	0.339118
631	N	0.441516	0.530654	0.646643
632	C	0.42238	0.546081	0.644076
633	O	0.395134	0.532494	0.615403
634	O	0.506542	0.584708	0.39412
635	C	0.40391	0.545882	0.57042
636	H	0.380859	0.533833	0.550008
637	H	0.422465	0.540166	0.555267
638	H	0.413919	0.573374	0.569804
639	C	0.497685	0.571188	0.439025
640	H	0.520691	0.583202	0.459525
641	H	0.987708	0.543699	0.439513
642	H	0.479074	0.076827	0.454175
643	C	0.43382	0.858687	0.670347
644	N	0.422759	0.876097	0.362779
645	C	0.438114	0.910654	0.365268
646	C	0.46769	0.930831	0.339081
647	N	0.478736	0.913408	0.646656
648	C	0.463363	0.878861	0.644113
649	O	0.477013	0.865246	0.615473
650	O	0.424541	0.924274	0.394026
651	C	0.463642	0.860606	0.570478
652	H	0.475739	0.849641	0.550096
653	H	0.469331	0.884855	0.555307
654	H	0.436143	0.843092	0.569834
655	C	0.438046	0.928968	0.438951
656	H	0.42598	0.939922	0.459414
657	H	0.46554	0.946507	0.439466
658	H	0.93243	0.904741	0.454118
659	C	0.323414	0.57919	0.340015
660	N	0.308258	0.580127	0.634225
661	C	0.27736	0.578121	0.63157
662	C	0.261558	0.57945	0.672075
663	N	0.277701	0.58045	0.377824
664	C	0.30647	0.578241	0.380496
665	O	0.3223	0.584059	0.421381
666	O	0.267546	0.583909	0.590516
667	C	0.313576	0.553101	0.444947
668	H	0.327103	0.55981	0.476999
669	H	0.321342	0.537409	0.426044
670	H	0.286273	0.538371	0.452005
671	H	0.257947	0.538155	0.560169
672	C	0.430306	0.746793	0.33989
673	N	0.42941	0.730742	0.634104
674	C	0.431422	0.701861	0.631533
675	C	0.430063	0.684746	0.672065
676	N	0.429027	0.699896	0.377794
677	C	0.431225	0.730857	0.380435
678	O	0.425387	0.740885	0.421297
679	O	0.425683	0.68625	0.590496
680	C	0.456351	0.763108	0.444883
681	H	0.449625	0.76994	0.476912
682	H	0.472071	0.786548	0.42597
683	H	0.47107	0.750532	0.451985
684	C	0.456716	0.695083	0.567014
685	H	0.450081	0.681722	0.534848
686	H	0.472361	0.68722	0.585857
687	H	0.471478	0.722409	0.560196
688	C	0.262564	0.686049	0.340028
689	N	0.278654	0.701204	0.634242
690	C	0.307543	0.732081	0.631587
691	C	0.324685	0.747867	0.672089
692	N	0.309547	0.731725	0.377834
693	C	0.278571	0.702978	0.380509
694	O	0.268572	0.687149	0.421395
695	O	0.323136	0.741891	0.59053
696	H	0.258889	0.72316	0.452042
697	C	0.314311	0.764073	0.567008
698	H	0.327657	0.770749	0.534824
699	H	0.32221	0.787597	0.5858
700	H	0.28697	0.751525	0.560216
701	C	0.487856	0.522952	0.672196
702	C	0.469725	0.986855	0.671816
703	C	0.486354	0.967404	0.672169
704	H	0.443692	0.974429	0.671128
705	C	0.259372	0.631402	0.672527
706	H	0.285529	0.644276	0.672887
707	C	0.413978	0.648717	0.672422
708	C	0.378091	0.630628	0.67253
709	C	0.359397	0.594783	0.672318
710	C	0.377318	0.576721	0.671715
711	C	0.41355	0.593953	0.671048
712	C	0.431449	0.63018	0.67191
713	H	0.363659	0.550713	0.672742
714	H	0.457506	0.643339	0.67123
715	H	0.365215	0.643907	0.672897
716	C	0.360728	0.767807	0.672412
717	C	0.378837	0.750031	0.672469
718	C	0.414701	0.767188	0.672257
719	C	0.432755	0.803159	0.671688
720	C	0.415503	0.822139	0.671061
721	C	0.379261	0.8038	0.67193
722	H	0.458774	0.815511	0.672688
723	H	0.366081	0.816677	0.671294
724	H	0.365557	0.723885	0.672813
725	C	0.431766	0.575614	0.003657
726	N	0.460205	0.58661	0.696143
727	C	0.47937	0.5712	0.698656
728	C	0.469956	0.541637	0.672452
729	N	0.441516	0.530654	0.979977
730	C	0.42238	0.546081	0.97741
731	O	0.395134	0.532494	0.948733
732	O	0.506542	0.584708	0.727454
733	C	0.40391	0.545882	0.903754
734	H	0.380859	0.533833	0.883342
735	H	0.422465	0.540166	0.888601
736	H	0.413919	0.573374	0.903138
737	C	0.497685	0.571188	0.772359
738	H	0.520691	0.583202	0.792859
739	H	0.987708	0.543699	0.772847
740	H	0.479074	0.076827	0.787509
741	C	0.43382	0.858687	0.003681
742	N	0.422759	0.876097	0.696113
743	C	0.438114	0.910654	0.698602
744	C	0.46769	0.930831	0.672415
745	N	0.478736	0.913408	0.97999
746	C	0.463363	0.878861	0.977447
747	O	0.477013	0.865246	0.948807
748	O	0.424541	0.924274	0.72736
749	C	0.463642	0.860606	0.903812
750	H	0.475739	0.849641	0.88343
751	H	0.469331	0.884855	0.888641
752	H	0.436143	0.843092	0.903168
753	C	0.438046	0.928968	0.772285
754	H	0.42598	0.939922	0.792748
755	H	0.46554	0.946507	0.7728
756	H	0.93243	0.904741	0.787452
757	C	0.323414	0.57919	0.673349
758	N	0.308258	0.580127	0.967559
759	C	0.27736	0.578121	0.964904
760	C	0.261558	0.57945	0.005407
761	N	0.277701	0.58045	0.711158
762	C	0.30647	0.578241	0.71383
763	O	0.3223	0.584059	0.754715
764	O	0.267546	0.583909	0.92385
765	C	0.313576	0.553101	0.778281
766	H	0.327103	0.55981	0.810333
767	H	0.321342	0.537409	0.759378
768	H	0.286273	0.538371	0.785339
769	H	0.257947	0.538155	0.893503
770	C	0.430306	0.746793	0.673224
771	N	0.42941	0.730742	0.967438
772	C	0.431422	0.701861	0.964867
773	C	0.430063	0.684746	0.005399
774	N	0.429027	0.699896	0.711125
775	C	0.431225	0.730857	0.713769
776	O	0.425387	0.740885	0.754631
777	O	0.425683	0.68625	0.92383
778	C	0.456351	0.763108	0.778217
779	H	0.449625	0.76994	0.810246
780	H	0.472071	0.786548	0.759304
781	H	0.47107	0.750532	0.785319
782	C	0.456716	0.695083	0.900348
783	H	0.450081	0.681722	0.868182
784	H	0.472361	0.68722	0.919191
785	H	0.471478	0.722409	0.89353
786	C	0.262564	0.686049	0.673362
787	N	0.278654	0.701204	0.967576
788	C	0.307543	0.732081	0.964921
789	C	0.324685	0.747867	0.005421
790	N	0.309547	0.731725	0.711168
791	C	0.278571	0.702978	0.713843
792	O	0.268572	0.687149	0.754729
793	O	0.323136	0.741891	0.923864
794	H	0.258889	0.72316	0.785376
795	C	0.314311	0.764073	0.900342
796	H	0.327657	0.770749	0.868155
797	H	0.32221	0.787597	0.919134
798	H	0.28697	0.751525	0.89355
799	C	0.541918	0.021442	0.005493
800	C	0.523934	0.039566	0.005143
801	C	0.987854	0.022952	0.005528
802	C	0.969724	0.486857	0.00515
803	C	0.986354	0.467406	0.005502
804	C	0.522468	0.485378	0.005126
805	H	0.943692	0.474428	0.004462
806	H	0.534909	0.471789	0.004415
807	H	0.537525	0.065587	0.004452
808	C	0.741602	0.095532	0.00574
809	C	0.759372	0.131403	0.005858
810	C	0.742188	0.150079	0.005658
811	C	0.706199	0.13215	0.005065
812	C	0.687232	0.095932	0.004405
813	C	0.705596	0.078056	0.005251
814	H	0.693826	0.145792	0.006102
815	H	0.692726	0.052011	0.00457
816	H	0.785528	0.144276	0.006219
817	C	0.913978	0.148718	0.005754
818	C	0.87809	0.130628	0.005861
819	C	0.859397	0.094782	0.005651
820	C	0.877318	0.076721	0.005045
821	C	0.913549	0.093954	0.004382
822	C	0.931448	0.130181	0.005244
823	H	0.86366	0.050715	0.006073
824	H	0.957507	0.14334	0.004563
825	H	0.865215	0.143907	0.006228
826	C	0.860726	0.267806	0.005744
827	C	0.878836	0.25003	0.005802
828	C	0.914701	0.267188	0.005591
829	C	0.932756	0.30316	0.005022
830	C	0.915505	0.322141	0.004395
831	C	0.879259	0.303799	0.005264
832	H	0.958774	0.315513	0.006021
833	H	0.86608	0.316676	0.004624
834	H	0.865557	0.223886	0.006146
835	C	0.650674	0.077683	0.337013
836	N	0.633277	0.049202	0.029413
837	C	0.598706	0.029974	0.031891
838	C	0.578505	0.03936	0.005728
839	N	0.595916	0.067844	0.313342
840	C	0.630475	0.087042	0.310808
841	O	0.644079	0.114322	0.282213
842	O	0.585098	0.002768	0.060611
843	C	0.648733	0.105646	0.237195
844	H	0.659688	0.128718	0.216851
845	H	0.624483	0.087092	0.222007
846	H	0.666273	0.095691	0.236516
847	C	0.580394	0.011531	0.105558
848	H	0.569448	0.988502	0.125988
849	H	0.562828	0.521458	0.106109
850	H	0.604625	0.030136	0.120738
851	C	0.931766	0.075613	0.336989
852	N	0.960205	0.086609	0.029474
853	C	0.979369	0.071199	0.031988
854	C	0.969957	0.041637	0.005785
855	N	0.941516	0.030655	0.31331
856	C	0.92238	0.046082	0.310741
857	O	0.895135	0.032495	0.282067
858	O	0.006542	0.084709	0.060785
859	C	0.903909	0.045882	0.237088
860	H	0.88086	0.033834	0.216675
861	H	0.922465	0.040165	0.221932
862	H	0.91392	0.073375	0.23647
863	C	0.997684	0.071187	0.105692
864	H	0.487707	0.043698	0.106181
865	H	0.979075	0.576826	0.120843
866	C	0.933819	0.358686	0.337013
867	N	0.922759	0.376096	0.029446
868	C	0.938113	0.410653	0.031934
869	C	0.967689	0.43083	0.005748
870	N	0.978736	0.413407	0.313322
871	C	0.963363	0.37886	0.310779
872	O	0.977011	0.365245	0.282139
873	O	0.924541	0.424276	0.060692
874	C	0.963642	0.360608	0.237144
875	H	0.97574	0.349642	0.216761
876	H	0.969329	0.384854	0.221973
877	H	0.936143	0.343093	0.236502
878	C	0.938045	0.428967	0.105617
879	H	0.925981	0.439924	0.126081
880	H	0.96554	0.446509	0.106132
881	H	0.432431	0.404743	0.120785
882	C	0.823412	0.079189	0.006679
883	N	0.808258	0.080128	0.300891
884	C	0.77736	0.078122	0.298236
885	C	0.761558	0.079451	0.338741
886	N	0.777702	0.08045	0.04449
887	C	0.806469	0.078241	0.047162
888	O	0.822299	0.084059	0.088049
889	O	0.767546	0.08391	0.257184
890	C	0.813575	0.0531	0.111615
891	H	0.827103	0.059811	0.143667
892	H	0.821341	0.037408	0.092711
893	H	0.786273	0.038371	0.118671
894	C	0.745375	0.05292	0.233636
895	H	0.738696	0.059592	0.201457
896	H	0.721838	0.037278	0.252417
897	H	0.757947	0.038154	0.226833
898	C	0.930305	0.246794	0.006556
899	N	0.929409	0.230741	0.300771
900	C	0.931422	0.20186	0.298199
901	C	0.930063	0.184746	0.338731
902	N	0.929025	0.199895	0.044459
903	C	0.931225	0.230858	0.047101
904	O	0.925387	0.240884	0.087964
905	O	0.925683	0.186251	0.257163
906	C	0.956352	0.26311	0.11155
907	H	0.949624	0.269942	0.143579
908	H	0.972072	0.28655	0.092636
909	H	0.97107	0.250533	0.118652
910	C	0.956717	0.195084	0.233682
911	H	0.950082	0.181724	0.201513
912	H	0.972361	0.187221	0.252522
913	H	0.971477	0.222409	0.226862
914	C	0.762564	0.18605	0.006696
915	N	0.778654	0.201204	0.300909
916	C	0.807544	0.232082	0.298254
917	C	0.824684	0.247868	0.338755
918	N	0.809548	0.231726	0.044501
919	C	0.77857	0.202977	0.047176
920	O	0.768573	0.187149	0.08806
921	O	0.823136	0.241892	0.257197
922	C	0.746328	0.19587	0.111644
923	H	0.739522	0.182344	0.143693
924	H	0.722861	0.188112	0.09275
925	H	0.758887	0.223159	0.118707
926	C	0.814311	0.264072	0.233673
927	H	0.827656	0.270748	0.201489
928	H	0.822212	0.287598	0.252465
929	H	0.786969	0.251525	0.226883
930	C	0.541918	0.021442	0.338825
931	C	0.523934	0.039566	0.338475
932	C	0.987854	0.022952	0.338862
933	C	0.969724	0.486857	0.338482
934	C	0.986354	0.467406	0.338835
935	C	0.522468	0.485378	0.338458
936	H	0.943692	0.474428	0.337794
937	H	0.534909	0.471789	0.337747
938	H	0.537525	0.065587	0.337784
939	C	0.741602	0.095532	0.339075
940	C	0.759372	0.131403	0.339193
941	C	0.742188	0.150079	0.33899
942	C	0.706199	0.13215	0.338398
943	C	0.687232	0.095932	0.337737
944	C	0.705596	0.078056	0.338583
945	H	0.693826	0.145792	0.339435
946	H	0.692726	0.052011	0.337902
947	H	0.785528	0.144276	0.339553
948	C	0.913978	0.148718	0.339088
949	C	0.87809	0.130628	0.339196
950	C	0.859397	0.094782	0.338984
951	C	0.877318	0.076721	0.338381
952	C	0.913549	0.093954	0.337714
953	C	0.931448	0.130181	0.338576
954	H	0.86366	0.050715	0.339408
955	H	0.957507	0.14334	0.337896
956	H	0.865215	0.143907	0.339563
957	C	0.860726	0.267806	0.339078
958	C	0.878836	0.25003	0.339135
959	C	0.914701	0.267188	0.338923
960	C	0.932756	0.30316	0.338354
961	C	0.915505	0.322141	0.33773
962	C	0.879259	0.303799	0.338596
963	H	0.958774	0.315513	0.339354
964	H	0.86608	0.316676	0.33796
965	H	0.865557	0.223886	0.339479
966	C	0.650674	0.077683	0.670347
967	N	0.633277	0.049202	0.362745
968	C	0.598706	0.029974	0.365224
969	C	0.578505	0.03936	0.339061
970	N	0.595916	0.067844	0.646677
971	C	0.630475	0.087042	0.644143
972	O	0.644079	0.114322	0.615548
973	O	0.585098	0.002768	0.393945
974	C	0.648733	0.105646	0.570528
975	H	0.659688	0.128718	0.550183
976	H	0.624483	0.087092	0.555341
977	H	0.666273	0.095691	0.569851
978	C	0.580394	0.011531	0.43889
979	H	0.569448	0.988502	0.459323
980	H	0.562828	0.521458	0.439442
981	H	0.604625	0.030136	0.45407
982	C	0.931766	0.075613	0.670323
983	N	0.960205	0.086609	0.362809
984	C	0.979369	0.071199	0.365322
985	C	0.969957	0.041637	0.339118
986	N	0.941516	0.030655	0.646643
987	C	0.92238	0.046082	0.644076
988	O	0.895135	0.032495	0.615403
989	O	0.006542	0.084709	0.39412
990	C	0.903909	0.045882	0.57042
991	H	0.88086	0.033834	0.550008
992	H	0.922465	0.040165	0.555267
993	H	0.91392	0.073375	0.569804
994	C	0.997684	0.071187	0.439025
995	H	0.487707	0.043698	0.439513
996	H	0.979075	0.576826	0.454175
997	C	0.933819	0.358686	0.670347
998	N	0.922759	0.376096	0.362779
999	C	0.938113	0.410653	0.365268
1000	C	0.967689	0.43083	0.339081
1001	N	0.978736	0.413407	0.646656
1002	C	0.963363	0.37886	0.644113
1003	O	0.977011	0.365245	0.615473
1004	O	0.924541	0.424276	0.394026
1005	C	0.963642	0.360608	0.570478
1006	H	0.97574	0.349642	0.550096
1007	H	0.969329	0.384854	0.555307
1008	H	0.936143	0.343093	0.569834
1009	C	0.938045	0.428967	0.438951
1010	H	0.925981	0.439924	0.459414
1011	H	0.96554	0.446509	0.439466
1012	H	0.432431	0.404743	0.454118
1013	C	0.823412	0.079189	0.340015
1014	N	0.808258	0.080128	0.634225
1015	C	0.77736	0.078122	0.63157
1016	C	0.761558	0.079451	0.672075
1017	N	0.777702	0.08045	0.377824
1018	C	0.806469	0.078241	0.380496
1019	O	0.822299	0.084059	0.421381
1020	O	0.767546	0.08391	0.590516
1021	C	0.813575	0.0531	0.444947
1022	H	0.827103	0.059811	0.476999
1023	H	0.821341	0.037408	0.426044
1024	H	0.786273	0.038371	0.452005
1025	C	0.745375	0.05292	0.566971
1026	H	0.738696	0.059592	0.53479
1027	H	0.721838	0.037278	0.585749
1028	H	0.757947	0.038154	0.560169
1029	C	0.930305	0.246794	0.33989
1030	N	0.929409	0.230741	0.634104
1031	C	0.931422	0.20186	0.631533
1032	C	0.930063	0.184746	0.672065
1033	N	0.929025	0.199895	0.377794
1034	C	0.931225	0.230858	0.380435
1035	O	0.925387	0.240884	0.421297
1036	O	0.925683	0.186251	0.590496
1037	C	0.956352	0.26311	0.444883
1038	H	0.949624	0.269942	0.476912
1039	H	0.972072	0.28655	0.42597
1040	H	0.97107	0.250533	0.451985
1041	C	0.956717	0.195084	0.567014
1042	H	0.950082	0.181724	0.534848
1043	H	0.972361	0.187221	0.585857
1044	H	0.971477	0.222409	0.560196
1045	C	0.762564	0.18605	0.340028
1046	N	0.778654	0.201204	0.634242
1047	C	0.807544	0.232082	0.631587
1048	C	0.824684	0.247868	0.672089
1049	N	0.809548	0.231726	0.377834
1050	C	0.77857	0.202977	0.380509
1051	O	0.768573	0.187149	0.421395
1052	O	0.823136	0.241892	0.59053
1053	C	0.746328	0.19587	0.444978
1054	H	0.739522	0.182344	0.477026
1055	H	0.722861	0.188112	0.426085
1056	H	0.758887	0.223159	0.452042
1057	C	0.814311	0.264072	0.567008
1058	H	0.827656	0.270748	0.534824
1059	H	0.822212	0.287598	0.5858
1060	H	0.786969	0.251525	0.560216
1061	C	0.541918	0.021442	0.672159
1062	C	0.523934	0.039566	0.671809
1063	C	0.987854	0.022952	0.672196
1064	C	0.969724	0.486857	0.671816
1065	C	0.986354	0.467406	0.672169
1066	C	0.522468	0.485378	0.671792
1067	H	0.943692	0.474428	0.671128
1068	H	0.534909	0.471789	0.671081
1069	H	0.537525	0.065587	0.671118
1070	C	0.741602	0.095532	0.672409
1071	C	0.759372	0.131403	0.672527
1072	C	0.742188	0.150079	0.672324
1073	C	0.706199	0.13215	0.671731
1074	C	0.687232	0.095932	0.671071
1075	C	0.705596	0.078056	0.671917
1076	H	0.693826	0.145792	0.672769
1077	H	0.692726	0.052011	0.671236
1078	H	0.785528	0.144276	0.672887
1079	C	0.913978	0.148718	0.672422
1080	C	0.87809	0.130628	0.67253
1081	C	0.859397	0.094782	0.672318
1082	C	0.877318	0.076721	0.671715
1083	C	0.913549	0.093954	0.671048
1084	C	0.931448	0.130181	0.67191
1085	H	0.86366	0.050715	0.672742
1086	H	0.957507	0.14334	0.67123
1087	H	0.865215	0.143907	0.672897
1088	C	0.860726	0.267806	0.672412
1089	C	0.878836	0.25003	0.672469
1090	C	0.914701	0.267188	0.672257
1091	C	0.932756	0.30316	0.671688
1092	C	0.915505	0.322141	0.671061
1093	C	0.879259	0.303799	0.67193
1094	H	0.958774	0.315513	0.672688
1095	H	0.86608	0.316676	0.671294
1096	H	0.865557	0.223886	0.672813
1097	C	0.650674	0.077683	0.003681
1098	N	0.633277	0.049202	0.696079
1099	C	0.598706	0.029974	0.698558
1100	C	0.578505	0.03936	0.672395
1101	N	0.595916	0.067844	0.980011
1102	C	0.630475	0.087042	0.977477
1103	O	0.644079	0.114322	0.948881
1104	O	0.585098	0.002768	0.727279
1105	C	0.648733	0.105646	0.903862
1106	H	0.659688	0.128718	0.883517
1107	H	0.624483	0.087092	0.888675
1108	H	0.666273	0.095691	0.903185
1109	C	0.580394	0.011531	0.772224
1110	H	0.569448	0.988502	0.792657
1111	H	0.562828	0.521458	0.772776
1112	H	0.604625	0.030136	0.787404
1113	C	0.931766	0.075613	0.003657
1114	N	0.960205	0.086609	0.696143
1115	C	0.979369	0.071199	0.698656
1116	C	0.969957	0.041637	0.672452
1117	N	0.941516	0.030655	0.979977
1118	C	0.92238	0.046082	0.97741
1119	O	0.895135	0.032495	0.948733
1120	O	0.006542	0.084709	0.727454
1121	C	0.903909	0.045882	0.903754
1122	H	0.88086	0.033834	0.883342
1123	H	0.922465	0.040165	0.888601
1124	H	0.91392	0.073375	0.903138
1125	C	0.997684	0.071187	0.772359
1126	H	0.487707	0.043698	0.772847
1127	H	0.979075	0.576826	0.787509
1128	C	0.933819	0.358686	0.003681
1129	N	0.922759	0.376096	0.696113
1130	C	0.938113	0.410653	0.698602
1131	C	0.967689	0.43083	0.672415
1132	N	0.978736	0.413407	0.97999
1133	C	0.963363	0.37886	0.977447
1134	O	0.977011	0.365245	0.948807
1135	O	0.924541	0.424276	0.72736
1136	C	0.963642	0.360608	0.903812
1137	H	0.97574	0.349642	0.88343
1138	H	0.969329	0.384854	0.888641
1139	H	0.936143	0.343093	0.903168
1140	C	0.938045	0.428967	0.772285
1141	H	0.925981	0.439924	0.792748
1142	H	0.96554	0.446509	0.7728
1143	H	0.432431	0.404743	0.787452
1144	C	0.823412	0.079189	0.673349
1145	N	0.808258	0.080128	0.967559
1146	C	0.77736	0.078122	0.964904
1147	C	0.761558	0.079451	0.005407
1148	N	0.777702	0.08045	0.711158
1149	C	0.806469	0.078241	0.71383
1150	O	0.822299	0.084059	0.754715
1151	O	0.767546	0.08391	0.92385
1152	C	0.813575	0.0531	0.778281
1153	H	0.827103	0.059811	0.810333
1154	H	0.821341	0.037408	0.759378
1155	H	0.786273	0.038371	0.785339
1156	C	0.745375	0.05292	0.900305
1157	H	0.738696	0.059592	0.868124
1158	H	0.721838	0.037278	0.919083
1159	H	0.757947	0.038154	0.893503
1160	C	0.930305	0.246794	0.673224
1161	N	0.929409	0.230741	0.967438
1162	C	0.931422	0.20186	0.964867
1163	C	0.930063	0.184746	0.005399
1164	N	0.929025	0.199895	0.711125
1165	C	0.931225	0.230858	0.713769
1166	O	0.925387	0.240884	0.754631
1167	O	0.925683	0.186251	0.92383
1168	C	0.956352	0.26311	0.778217
1169	H	0.949624	0.269942	0.810246
1170	H	0.972072	0.28655	0.759304
1171	H	0.97107	0.250533	0.785319
1172	C	0.956717	0.195084	0.900348
1173	H	0.950082	0.181724	0.868182
1174	H	0.972361	0.187221	0.919191
1175	H	0.971477	0.222409	0.89353
1176	C	0.762564	0.18605	0.673362
1177	N	0.778654	0.201204	0.967576
1178	C	0.807544	0.232082	0.964921
1179	C	0.824684	0.247868	0.005421
1180	N	0.809548	0.231726	0.711168
1181	C	0.77857	0.202977	0.713843
1182	O	0.768573	0.187149	0.754729
1183	O	0.823136	0.241892	0.923864
1184	C	0.746328	0.19587	0.778312
1185	H	0.739522	0.182344	0.81036
1186	H	0.722861	0.188112	0.759418
1187	H	0.758887	0.223159	0.785376
1188	C	0.814311	0.264072	0.900342
1189	H	0.827656	0.270748	0.868155
1190	H	0.822212	0.287598	0.919134
1191	H	0.786969	0.251525	0.89355
1192	C	0.541918	0.521442	0.005493
1193	C	0.523934	0.539565	0.005143
1194	C	0.987856	0.522952	0.005528
1195	C	0.969726	0.986855	0.00515
1196	C	0.986353	0.967404	0.005502
1197	C	0.522467	0.985376	0.005126
1198	H	0.943693	0.974429	0.004462
1199	H	0.534911	0.97179	0.004415
1200	H	0.537527	0.565588	0.004452
1201	C	0.741603	0.595534	0.00574
1202	C	0.759372	0.631402	0.005858
1203	C	0.742188	0.650079	0.005658
1204	C	0.706202	0.63215	0.005065
1205	C	0.687233	0.595933	0.004405
1206	C	0.705596	0.578057	0.005251
1207	H	0.693827	0.645793	0.006102
1208	H	0.692726	0.552011	0.00457
1209	H	0.78553	0.644276	0.006219
1210	C	0.913978	0.648717	0.005754
1211	C	0.87809	0.630628	0.005861
1212	C	0.859397	0.594783	0.005651
1213	C	0.877317	0.576721	0.005045
1214	C	0.91355	0.593953	0.004382
1215	C	0.931448	0.63018	0.005244
1216	H	0.863659	0.550713	0.006073
1217	H	0.957506	0.643339	0.004563
1218	H	0.865216	0.643907	0.006228
1219	C	0.860729	0.767807	0.005744
1220	C	0.878838	0.750031	0.005802
1221	C	0.914701	0.767188	0.005591
1222	C	0.932755	0.803159	0.005022
1223	C	0.915504	0.822139	0.004395
1224	C	0.879262	0.8038	0.005264
1225	H	0.958775	0.815511	0.006021
1226	H	0.866083	0.816677	0.004627
1227	H	0.865556	0.723885	0.006146
1228	C	0.650674	0.577683	0.337013
1229	N	0.633277	0.549201	0.029413
1230	C	0.598706	0.529974	0.031891
1231	C	0.578505	0.539359	0.005728
1232	N	0.595918	0.567843	0.313342
1233	C	0.630477	0.587042	0.310808
1234	O	0.644078	0.61432	0.282213
1235	O	0.585096	0.502768	0.060611
1236	C	0.648735	0.605646	0.237195
1237	H	0.65969	0.628717	0.216851
1238	H	0.624482	0.587091	0.222007
1239	H	0.666276	0.595691	0.236516
1240	C	0.580394	0.511531	0.105558
1241	H	0.569446	0.488501	0.125988
1242	H	0.562828	0.021457	0.106109
1243	H	0.604626	0.530137	0.120738
1244	C	0.931766	0.575614	0.336989
1245	N	0.960205	0.58661	0.029474
1246	C	0.97937	0.5712	0.031988
1247	C	0.969956	0.541637	0.005785
1248	N	0.941515	0.530654	0.31331
1249	C	0.922379	0.546081	0.310741
1250	O	0.895135	0.532494	0.282067
1251	O	0.006542	0.584708	0.060785
1252	C	0.90391	0.545882	0.237088
1253	H	0.88086	0.533833	0.216675
1254	H	0.922465	0.540166	0.221932
1255	H	0.913919	0.573374	0.23647
1256	C	0.997685	0.571188	0.105692
1257	H	0.487708	0.543699	0.106181
1258	H	0.979076	0.076827	0.120843
1259	C	0.93382	0.858687	0.337013
1260	N	0.92276	0.876097	0.029446
1261	C	0.938115	0.910654	0.031934
1262	C	0.967691	0.930831	0.005748
1263	N	0.978736	0.913408	0.313322
1264	C	0.963364	0.878861	0.310779
1265	O	0.977014	0.865246	0.282139
1266	O	0.924542	0.924274	0.060692
1267	C	0.963642	0.860606	0.237144
1268	H	0.975739	0.849641	0.216761
1269	H	0.969332	0.884855	0.221973
1270	H	0.936143	0.843092	0.236502
1271	C	0.938045	0.928968	0.105617
1272	H	0.92598	0.939922	0.126081
1273	H	0.965539	0.946507	0.106132
1274	H	0.432431	0.904741	0.120785
1275	C	0.823413	0.57919	0.006679
1276	N	0.808257	0.580127	0.300891
1277	C	0.77736	0.578121	0.298236
1278	C	0.761557	0.57945	0.338741
1279	N	0.777702	0.58045	0.04449
1280	C	0.806471	0.578241	0.047162
1281	O	0.822301	0.584059	0.088049
1282	O	0.767546	0.583909	0.257184
1283	C	0.813576	0.553101	0.111615
1284	H	0.827103	0.55981	0.143667
1285	H	0.821342	0.537409	0.092711
1286	H	0.786274	0.538371	0.118671
1287	C	0.745375	0.55292	0.233636
1288	H	0.738696	0.559591	0.201457
1289	H	0.721839	0.537279	0.252417
1290	H	0.757947	0.538155	0.226833
1291	C	0.930307	0.746793	0.006556
1292	N	0.929409	0.730742	0.300771
1293	C	0.931422	0.701861	0.298199
1294	C	0.930063	0.684746	0.338731
1295	N	0.929026	0.699896	0.044459
1296	C	0.931224	0.730857	0.047101
1297	O	0.925388	0.740885	0.087964
1298	O	0.925682	0.68625	0.257163
1299	C	0.956351	0.763108	0.11155
1300	H	0.949626	0.76994	0.143579
1301	H	0.972071	0.786548	0.092636
1302	H	0.97107	0.750532	0.118652
1303	C	0.956716	0.695083	0.233682
1304	H	0.950081	0.681722	0.201513
1305	H	0.972361	0.68722	0.252522
1306	H	0.971477	0.722409	0.226862
1307	C	0.762564	0.686049	0.006696
1308	N	0.778654	0.701204	0.300909
1309	C	0.807544	0.732081	0.298254
1310	C	0.824686	0.747867	0.338755
1311	N	0.809547	0.731725	0.044501
1312	C	0.77857	0.702978	0.047176
1313	O	0.768573	0.687149	0.08806
1314	O	0.823137	0.741891	0.257197
1315	C	0.746328	0.695869	0.111644
1316	H	0.739524	0.682343	0.143693
1317	H	0.72286	0.688111	0.09275
1318	H	0.75889	0.72316	0.118707
1319	C	0.814312	0.764073	0.233673
1320	H	0.827657	0.770749	0.201489
1321	H	0.822211	0.787597	0.252465
1322	H	0.786971	0.751525	0.226883
1323	C	0.541918	0.521442	0.338825
1324	C	0.523934	0.539565	0.338475
1325	C	0.987856	0.522952	0.338862
1326	C	0.969726	0.986855	0.338482
1327	C	0.986353	0.967404	0.338835
1328	C	0.522467	0.985376	0.338458
1329	H	0.943693	0.974429	0.337794
1330	H	0.534911	0.97179	0.337747
1331	H	0.537527	0.565588	0.337784
1332	C	0.741603	0.595534	0.339075
1333	C	0.759372	0.631402	0.339193
1334	C	0.742188	0.650079	0.33899
1335	C	0.706202	0.63215	0.338398
1336	C	0.687233	0.595933	0.337737
1337	C	0.705596	0.578057	0.338583
1338	H	0.693827	0.645793	0.339435
1339	H	0.692726	0.552011	0.337902
1340	H	0.78553	0.644276	0.339553
1341	C	0.913978	0.648717	0.339088
1342	C	0.87809	0.630628	0.339196
1343	C	0.859397	0.594783	0.338984
1344	C	0.877317	0.576721	0.338381
1345	C	0.91355	0.593953	0.337714
1346	C	0.931448	0.63018	0.338576
1347	H	0.863659	0.550713	0.339408
1348	H	0.957506	0.643339	0.337896
1349	H	0.865216	0.643907	0.339563
1350	C	0.860729	0.767807	0.339078
1351	C	0.878838	0.750031	0.339135
1352	C	0.914701	0.767188	0.338923
1353	C	0.932755	0.803159	0.338354
1354	C	0.915504	0.822139	0.33773
1355	C	0.879262	0.8038	0.338596
1356	H	0.958775	0.815511	0.339354
1357	H	0.866083	0.816677	0.33796
1358	H	0.865556	0.723885	0.339479
1359	C	0.650674	0.577683	0.670347
1360	N	0.633277	0.549201	0.362745
1361	C	0.598706	0.529974	0.365224
1362	C	0.578505	0.539359	0.339061
1363	N	0.595918	0.567843	0.646677
1364	C	0.630477	0.587042	0.644143
1365	O	0.644078	0.61432	0.615548
1366	O	0.585096	0.502768	0.393945
1367	C	0.648735	0.605646	0.570528
1368	H	0.65969	0.628717	0.550183
1369	H	0.624482	0.587091	0.555341
1370	H	0.666276	0.595691	0.569851
1371	C	0.580394	0.511531	0.43889
1372	H	0.569446	0.488501	0.459323
1373	H	0.562828	0.021457	0.439442
1374	H	0.604626	0.530137	0.45407
1375	C	0.931766	0.575614	0.670323
1376	N	0.960205	0.58661	0.362809
1377	C	0.97937	0.5712	0.365322
1378	C	0.969956	0.541637	0.339118
1379	N	0.941515	0.530654	0.646643
1380	C	0.922379	0.546081	0.644076
1381	O	0.895135	0.532494	0.615403
1382	O	0.006542	0.584708	0.39412
1383	C	0.90391	0.545882	0.57042
1384	H	0.88086	0.533833	0.550008
1385	H	0.922465	0.540166	0.555267
1386	H	0.913919	0.573374	0.569804
1387	C	0.997685	0.571188	0.439025
1388	H	0.487708	0.543699	0.439513
1389	H	0.979076	0.076827	0.454175
1390	C	0.93382	0.858687	0.670347
1391	N	0.92276	0.876097	0.362779
1392	C	0.938115	0.910654	0.365268
1393	C	0.967691	0.930831	0.339081
1394	N	0.978736	0.913408	0.646656
1395	C	0.963364	0.878861	0.644113
1396	O	0.977014	0.865246	0.615473
1397	O	0.924542	0.924274	0.394026
1398	C	0.963642	0.860606	0.570478
1399	H	0.975739	0.849641	0.550096
1400	H	0.969332	0.884855	0.555307
1401	H	0.936143	0.843092	0.569834
1402	C	0.938045	0.928968	0.438951
1403	H	0.92598	0.939922	0.459414
1404	H	0.965539	0.946507	0.439466
1405	H	0.432431	0.904741	0.454118
1406	C	0.823413	0.57919	0.340015
1407	N	0.808257	0.580127	0.634225
1408	C	0.77736	0.578121	0.63157
1409	C	0.761557	0.57945	0.672075
1410	N	0.777702	0.58045	0.377824
1411	C	0.806471	0.578241	0.380496
1412	O	0.822301	0.584059	0.421381
1413	O	0.767546	0.583909	0.590516
1414	C	0.813576	0.553101	0.444947
1415	H	0.827103	0.55981	0.476999
1416	H	0.821342	0.537409	0.426044
1417	H	0.786274	0.538371	0.452005
1418	C	0.745375	0.55292	0.566971
1419	H	0.738696	0.559591	0.53479
1420	H	0.721839	0.537279	0.585749
1421	H	0.757947	0.538155	0.560169
1422	C	0.930307	0.746793	0.33989
1423	N	0.929409	0.730742	0.634104
1424	C	0.931422	0.701861	0.631533
1425	C	0.930063	0.684746	0.672065
1426	N	0.929026	0.699896	0.377794
1427	C	0.931224	0.730857	0.380435
1428	O	0.925388	0.740885	0.421297
1429	O	0.925682	0.68625	0.590496
1430	C	0.956351	0.763108	0.444883
1431	H	0.949626	0.76994	0.476912
1432	H	0.972071	0.786548	0.42597
1433	H	0.97107	0.750532	0.451985
1434	C	0.956716	0.695083	0.567014
1435	H	0.950081	0.681722	0.534848
1436	H	0.972361	0.68722	0.585857
1437	H	0.971477	0.722409	0.560196
1438	C	0.762564	0.686049	0.340028
1439	N	0.778654	0.701204	0.634242
1440	C	0.807544	0.732081	0.631587
1441	C	0.824686	0.747867	0.672089
1442	N	0.809547	0.731725	0.377834
1443	C	0.77857	0.702978	0.380509
1444	O	0.768573	0.687149	0.421395
1445	O	0.823137	0.741891	0.59053
1446	C	0.746328	0.695869	0.444978
1447	H	0.739524	0.682343	0.477026
1448	H	0.72286	0.688111	0.426085
1449	H	0.75889	0.72316	0.452042
1450	C	0.814312	0.764073	0.567008
1451	H	0.827657	0.770749	0.534824
1452	H	0.822211	0.787597	0.5858
1453	H	0.786971	0.751525	0.560216
1454	C	0.541918	0.521442	0.672159
1455	C	0.523934	0.539565	0.671809
1456	C	0.987856	0.522952	0.672196
1457	C	0.969726	0.986855	0.671816
1458	C	0.986353	0.967404	0.672169
1459	C	0.522467	0.985376	0.671792
1460	H	0.943693	0.974429	0.671128
1461	H	0.534911	0.97179	0.671081
1462	H	0.537527	0.565588	0.671118
1463	C	0.741603	0.595534	0.672409
1464	C	0.759372	0.631402	0.672527
1465	C	0.742188	0.650079	0.672324
1466	C	0.706202	0.63215	0.671731
1467	C	0.687233	0.595933	0.671071
1468	C	0.705596	0.578057	0.671917
1469	H	0.693827	0.645793	0.672769
1470	H	0.692726	0.552011	0.671236
1471	H	0.78553	0.644276	0.672887
1472	C	0.913978	0.648717	0.672422
1473	C	0.87809	0.630628	0.67253
1474	C	0.859397	0.594783	0.672318
1475	C	0.877317	0.576721	0.671715
1476	C	0.91355	0.593953	0.671048
1477	C	0.931448	0.63018	0.67191
1478	H	0.863659	0.550713	0.672742
1479	H	0.957506	0.643339	0.67123
1480	H	0.865216	0.643907	0.672897
1481	C	0.860729	0.767807	0.672412
1482	C	0.878838	0.750031	0.672469
1483	C	0.914701	0.767188	0.672257
1484	C	0.932755	0.803159	0.671688
1485	C	0.915504	0.822139	0.671061
1486	C	0.879262	0.8038	0.67193
1487	H	0.958775	0.815511	0.672688
1488	H	0.866083	0.816677	0.671294
1489	H	0.865556	0.723885	0.672813
1490	C	0.650674	0.577683	0.003681
1491	N	0.633277	0.549201	0.696079
1492	C	0.598706	0.529974	0.698558
1493	C	0.578505	0.539359	0.672395
1494	N	0.595918	0.567843	0.980011
1495	C	0.630477	0.587042	0.977477
1496	O	0.644078	0.61432	0.948881
1497	O	0.585096	0.502768	0.727279
1498	C	0.648735	0.605646	0.903862
1499	H	0.65969	0.628717	0.883517
1500	H	0.624482	0.587091	0.888675
1501	H	0.666276	0.595691	0.903185
1502	C	0.580394	0.511531	0.772224
1503	H	0.569446	0.488501	0.792657
1504	H	0.562828	0.021457	0.772776
1505	H	0.604626	0.530137	0.787404
1506	C	0.931766	0.575614	0.003657
1507	N	0.960205	0.58661	0.696143
1508	C	0.97937	0.5712	0.698656
1509	C	0.969956	0.541637	0.672452
1510	N	0.941515	0.530654	0.979977
1511	C	0.922379	0.546081	0.97741
1512	O	0.895135	0.532494	0.948733
1513	O	0.006542	0.584708	0.727454
1514	C	0.90391	0.545882	0.903754
1515	H	0.88086	0.533833	0.883342
1516	H	0.922465	0.540166	0.888601
1517	H	0.913919	0.573374	0.903138
1518	C	0.997685	0.571188	0.772359
1519	H	0.487708	0.543699	0.772847
1520	H	0.979076	0.076827	0.787509
1521	C	0.93382	0.858687	0.003681
1522	N	0.92276	0.876097	0.696113
1523	C	0.938115	0.910654	0.698602
1524	C	0.967691	0.930831	0.672415
1525	N	0.978736	0.913408	0.97999
1526	C	0.963364	0.878861	0.977447
1527	O	0.977014	0.865246	0.948807
1528	O	0.924542	0.924274	0.72736
1529	C	0.963642	0.860606	0.903812
1530	H	0.975739	0.849641	0.88343
1531	H	0.969332	0.884855	0.888641
1532	H	0.936143	0.843092	0.903168
1533	C	0.938045	0.928968	0.772285
1534	H	0.92598	0.939922	0.792748
1535	H	0.965539	0.946507	0.7728
1536	H	0.432431	0.904741	0.787452
1537	C	0.823413	0.57919	0.673349
1538	N	0.808257	0.580127	0.967559
1539	C	0.77736	0.578121	0.964904
1540	C	0.761557	0.57945	0.005407
1541	N	0.777702	0.58045	0.711158
1542	C	0.806471	0.578241	0.71383
1543	O	0.822301	0.584059	0.754715
1544	O	0.767546	0.583909	0.92385
1545	C	0.813576	0.553101	0.778281
1546	H	0.827103	0.55981	0.810333
1547	H	0.821342	0.537409	0.759378
1548	H	0.786274	0.538371	0.785339
1549	C	0.745375	0.55292	0.900305
1550	H	0.738696	0.559591	0.868124
1551	H	0.721839	0.537279	0.919083
1552	H	0.757947	0.538155	0.893503
1553	C	0.930307	0.746793	0.673224
1554	N	0.929409	0.730742	0.967438
1555	C	0.931422	0.701861	0.964867
1556	C	0.930063	0.684746	0.005399
1557	N	0.929026	0.699896	0.711125
1558	C	0.931224	0.730857	0.713769
1559	O	0.925388	0.740885	0.754631
1560	O	0.925682	0.68625	0.92383
1561	C	0.956351	0.763108	0.778217
1562	H	0.949626	0.76994	0.810246
1563	H	0.972071	0.786548	0.759304
1564	H	0.97107	0.750532	0.785319
1565	C	0.956716	0.695083	0.900348
1566	H	0.950081	0.681722	0.868182
1567	H	0.972361	0.68722	0.919191
1568	H	0.971477	0.722409	0.89353
1569	C	0.762564	0.686049	0.673362
1570	N	0.778654	0.701204	0.967576
1571	C	0.807544	0.732081	0.964921
1572	C	0.824686	0.747867	0.005421
1573	N	0.809547	0.731725	0.711168
1574	C	0.77857	0.702978	0.713843
1575	O	0.768573	0.687149	0.754729
1576	O	0.823137	0.741891	0.923864
1577	C	0.746328	0.695869	0.778312
1578	H	0.739524	0.682343	0.81036
1579	H	0.72286	0.688111	0.759418
1580	H	0.75889	0.72316	0.785376
1581	C	0.814312	0.764073	0.900342
1582	H	0.827657	0.770749	0.868155
1583	H	0.822211	0.787597	0.919134
1584	H	0.786971	0.751525	0.89355
