data_C576H216N216O144_2018-02-15_10:40:09
#******************************************
#
# CIF file created by Zeo++
# Zeo++ is an open source package to
# analyze microporous materials
#
#*******************************************

_cell_length_a		45.2542   
_cell_length_b		45.2752   
_cell_length_c		29.68   
_cell_angle_alpha		90   
_cell_angle_beta		90   
_cell_angle_gamma		119.989   

_symmetry_space_group_name_H-M		'P1'
_symmetry_Int_Tables_number		1
_symmetry_cell_setting		Monoclinic

loop_
_symmetry_equiv_pos_as_xyz
'+x,+y,+z'

loop_
_atom_site_label
_atom_site_type_symbol
_atom_site_fract_x
_atom_site_fract_y
_atom_site_fract_z
1	N	0.098214	0.071284	0.022482
2	N	0.098215	0.571284	0.022481
3	C	0.1328	0.090464	0.024909
4	H	0.143415	0.111711	0.044819
5	C	0.1328	0.590464	0.024908
6	H	0.143415	0.611711	0.044818
7	C	0.044115	0.023991	0.998896
8	C	0.025697	0.041819	0.998828
9	C	0.024913	0.487857	0.000715
10	H	0.037484	0.474379	0.002316
11	H	0.038926	0.067902	0.997022
12	C	0.08083	0.041987	0.331408
13	C	0.101124	0.031656	0.306848
14	N	0.086639	0.003344	0.277598
15	O	0.095869	0.982377	0.28858
16	O	0.096097	0.012644	0.237784
17	C	0.044115	0.023991	0.332229
18	C	0.025697	0.041819	0.332163
19	C	0.024913	0.487857	0.334048
20	H	0.037484	0.474379	0.335649
21	H	0.038926	0.067902	0.330357
22	C	0.08083	0.041987	0.664741
23	N	0.098214	0.071284	0.355816
24	C	0.101124	0.031656	0.640183
25	N	0.086639	0.003344	0.61093
26	O	0.095869	0.982377	0.621914
27	O	0.096097	0.012644	0.571116
28	C	0.044115	0.023991	0.665563
29	C	0.025697	0.041819	0.665496
30	C	0.024913	0.487857	0.667383
31	H	0.037484	0.474379	0.668983
32	H	0.038926	0.067902	0.66369
33	C	0.08083	0.041987	0.998074
34	N	0.098214	0.071284	0.689148
35	C	0.101124	0.031656	0.973515
36	N	0.086639	0.003344	0.944263
37	O	0.095869	0.982377	0.955247
38	O	0.096097	0.012644	0.904448
39	C	0.044116	0.523992	0.998896
40	C	0.025698	0.54182	0.998828
41	C	0.024913	0.987857	0.000715
42	H	0.037484	0.97438	0.002316
43	H	0.038927	0.567903	0.997022
44	C	0.080831	0.541988	0.331408
45	C	0.101125	0.531658	0.306848
46	N	0.086638	0.503344	0.277598
47	O	0.095868	0.482376	0.28858
48	O	0.096098	0.512644	0.237784
49	C	0.044116	0.523992	0.332229
50	C	0.025698	0.54182	0.332163
51	C	0.024913	0.987857	0.334049
52	H	0.037484	0.97438	0.335649
53	H	0.038927	0.567903	0.330357
54	C	0.080831	0.541988	0.664741
55	N	0.098215	0.571284	0.355816
56	C	0.101125	0.531658	0.640183
57	N	0.086638	0.503344	0.61093
58	O	0.095868	0.482376	0.621914
59	O	0.096098	0.512644	0.571116
60	C	0.044116	0.523992	0.665563
61	C	0.025698	0.54182	0.665496
62	C	0.024913	0.987857	0.667383
63	H	0.037484	0.97438	0.668983
64	H	0.038927	0.567903	0.66369
65	C	0.080831	0.541988	0.998074
66	N	0.098215	0.571284	0.689148
67	C	0.101125	0.531658	0.973515
68	N	0.086638	0.503344	0.944263
69	O	0.095868	0.482376	0.955247
70	O	0.096098	0.512644	0.904448
71	C	0.189823	0.098157	0.001433
72	H	0.19648	0.148121	0.004782
73	H	0.195366	0.054214	0.997336
74	C	0.153185	0.080003	0.334712
75	N	0.135821	0.051004	0.309928
76	C	0.189823	0.098157	0.334768
77	H	0.19648	0.148121	0.338114
78	H	0.195366	0.054214	0.330671
79	C	0.1328	0.090464	0.358242
80	C	0.153185	0.080003	0.668046
81	N	0.135821	0.051004	0.643262
82	H	0.143415	0.111711	0.378151
83	C	0.189823	0.098157	0.6681
84	H	0.19648	0.148121	0.671446
85	H	0.195366	0.054214	0.664003
86	C	0.1328	0.090464	0.691574
87	C	0.153185	0.080003	0.001379
88	N	0.135821	0.051004	0.976595
89	H	0.143415	0.111711	0.711486
90	C	0.189823	0.598157	0.001433
91	H	0.196481	0.648122	0.004779
92	H	0.195366	0.554213	0.997336
93	C	0.153186	0.580003	0.334711
94	N	0.135822	0.551005	0.309927
95	C	0.189823	0.598157	0.334768
96	H	0.196481	0.648122	0.338114
97	H	0.195366	0.554213	0.33067
98	C	0.1328	0.590464	0.358242
99	C	0.153186	0.580003	0.668043
100	N	0.135822	0.551005	0.643262
101	H	0.143415	0.611711	0.378151
102	C	0.189823	0.598157	0.6681
103	H	0.196481	0.648122	0.671446
104	H	0.195366	0.554213	0.664003
105	C	0.1328	0.590464	0.691574
106	C	0.153186	0.580003	0.001379
107	N	0.135822	0.551005	0.976595
108	H	0.143415	0.611711	0.711483
109	O	0.242134	0.189698	0.098207
110	O	0.242135	0.689699	0.098207
111	C	0.24435	0.097772	0.997875
112	C	0.244855	0.152336	0.00239
113	C	0.20883	0.134393	0.003555
114	C	0.20826	0.080315	0.998353
115	C	0.24435	0.097772	0.33121
116	C	0.244855	0.152336	0.335722
117	C	0.20883	0.134393	0.336891
118	C	0.20826	0.080315	0.331689
119	O	0.242134	0.189698	0.43154
120	C	0.24435	0.097772	0.664542
121	C	0.244855	0.152336	0.669054
122	C	0.20883	0.134393	0.670223
123	C	0.20826	0.080315	0.665021
124	O	0.242134	0.189698	0.764873
125	C	0.24435	0.597772	0.997875
126	C	0.244856	0.652337	0.00239
127	C	0.208832	0.634394	0.003555
128	C	0.208261	0.580317	0.998353
129	C	0.24435	0.597772	0.331209
130	C	0.244856	0.652337	0.335722
131	C	0.208832	0.634394	0.33689
132	C	0.208261	0.580317	0.331689
133	O	0.242135	0.689699	0.43154
134	C	0.24435	0.597772	0.664542
135	C	0.244856	0.652337	0.669054
136	C	0.208832	0.634394	0.670223
137	C	0.208261	0.580317	0.665021
138	O	0.242135	0.689699	0.764873
139	C	0.416871	0.15215	0.007275
140	C	0.434956	0.134268	0.007119
141	H	0.461051	0.14798	0.008112
142	H	0.367753	0.146639	0.005277
143	C	0.362846	0.270362	0.006247
144	C	0.380898	0.252528	0.009256
145	C	0.416816	0.269767	0.010933
146	C	0.435025	0.305722	0.009996
147	C	0.417758	0.324626	0.007058
148	H	0.461128	0.318044	0.010535
149	H	0.367572	0.226326	0.010007
150	N	0.482679	0.071598	0.024256
151	C	0.466988	0.090458	0.027354
152	H	0.477254	0.111269	0.048055
153	N	0.482035	0.416109	0.026714
154	C	0.466755	0.381634	0.029819
155	H	0.477223	0.37126	0.050485
156	N	0.278897	0.080439	0.036344
157	C	0.30801	0.078619	0.040476
158	N	0.322584	0.08025	0.083306
159	O	0.319778	0.051775	0.091608
160	C	0.432601	0.249606	0.013224
161	C	0.432808	0.188027	0.00983
162	N	0.429514	0.201347	0.049264
163	C	0.431009	0.232043	0.053551
164	N	0.424629	0.242803	0.095459
165	N	0.311321	0.233852	0.043683
166	C	0.280542	0.204472	0.04598
167	N	0.267722	0.187362	0.087526
168	C	0.43622	0.361067	0.005843
169	C	0.416871	0.652151	0.007275
170	C	0.434956	0.634267	0.007119
171	H	0.461052	0.647979	0.008112
172	H	0.367754	0.64664	0.005277
173	C	0.362848	0.770362	0.006247
174	C	0.380899	0.752529	0.009256
175	C	0.416817	0.769768	0.010933
176	C	0.435026	0.805722	0.009996
177	C	0.41776	0.824626	0.007058
178	H	0.461127	0.818044	0.010535
179	H	0.367574	0.726326	0.010007
180	N	0.482679	0.571598	0.024255
181	C	0.46699	0.590458	0.027353
182	H	0.477256	0.61127	0.048053
183	N	0.482036	0.916109	0.026713
184	C	0.466756	0.881634	0.029819
185	H	0.477225	0.87126	0.050484
186	N	0.278897	0.580439	0.036344
187	C	0.308012	0.578621	0.040476
188	N	0.322584	0.58025	0.083306
189	O	0.319777	0.551776	0.091607
190	C	0.432601	0.749607	0.013224
191	C	0.432808	0.688026	0.00983
192	N	0.429515	0.701348	0.049264
193	C	0.431009	0.732044	0.053551
194	N	0.424628	0.742803	0.095459
195	N	0.311321	0.733852	0.043683
196	C	0.280542	0.704472	0.045979
197	N	0.267723	0.687363	0.087525
198	C	0.43622	0.861067	0.005843
199	C	0.916871	0.15215	0.007275
200	C	0.934956	0.134268	0.007119
201	H	0.961051	0.14798	0.008112
202	H	0.867753	0.146639	0.005277
203	C	0.862846	0.270362	0.006247
204	C	0.880898	0.252528	0.009256
205	C	0.916816	0.269767	0.010933
206	C	0.935025	0.305722	0.009996
207	C	0.917758	0.324626	0.007058
208	H	0.961128	0.318044	0.010535
209	H	0.867572	0.226326	0.010007
210	N	0.598215	0.071284	0.022482
211	C	0.632801	0.090464	0.024909
212	H	0.643415	0.111711	0.044819
213	N	0.982679	0.071598	0.024256
214	C	0.966988	0.090458	0.027354
215	H	0.977254	0.111269	0.048055
216	N	0.982035	0.416109	0.026714
217	C	0.966755	0.381634	0.029819
218	H	0.977225	0.37126	0.050485
219	N	0.778897	0.080439	0.036344
220	C	0.80801	0.078619	0.040476
221	N	0.822584	0.08025	0.083306
222	O	0.819778	0.051775	0.091608
223	C	0.932601	0.249606	0.013224
224	C	0.932808	0.188027	0.00983
225	N	0.929514	0.201347	0.049264
226	C	0.931009	0.232043	0.053551
227	N	0.924629	0.242803	0.095459
228	N	0.811321	0.233852	0.043683
229	C	0.780542	0.204472	0.04598
230	N	0.767721	0.187362	0.087526
231	O	0.742134	0.189698	0.098207
232	C	0.93622	0.361067	0.005843
233	C	0.916871	0.652151	0.007275
234	C	0.934957	0.634267	0.007119
235	H	0.961052	0.647979	0.008112
236	H	0.867754	0.64664	0.005277
237	C	0.862847	0.770362	0.006247
238	C	0.8809	0.752529	0.009256
239	C	0.916817	0.769768	0.010933
240	C	0.935026	0.805722	0.009996
241	C	0.91776	0.824626	0.007058
242	H	0.961127	0.818044	0.010535
243	H	0.867573	0.726326	0.010007
244	N	0.598214	0.571284	0.022481
245	C	0.6328	0.590464	0.024908
246	H	0.643414	0.611711	0.044818
247	N	0.98268	0.571598	0.024255
248	C	0.966989	0.590458	0.027353
249	H	0.977255	0.61127	0.048053
250	N	0.982036	0.916109	0.026713
251	C	0.966756	0.881634	0.029819
252	H	0.977224	0.87126	0.050484
253	N	0.778898	0.580439	0.036344
254	C	0.808012	0.578621	0.040476
255	N	0.822585	0.58025	0.083306
256	O	0.819777	0.551776	0.091607
257	C	0.9326	0.749607	0.013224
258	C	0.932808	0.688026	0.00983
259	N	0.929515	0.701348	0.049264
260	C	0.931008	0.732044	0.053551
261	N	0.924628	0.742803	0.095459
262	N	0.811322	0.733852	0.043683
263	C	0.780541	0.704472	0.045979
264	N	0.767723	0.687363	0.087525
265	O	0.742136	0.689699	0.098207
266	C	0.936221	0.861067	0.005843
267	C	0.489505	0.024691	0.999324
268	C	0.471859	0.488655	0.001652
269	C	0.488786	0.469544	0.000897
270	H	0.445959	0.475973	0.005706
271	C	0.262107	0.133691	0.999883
272	H	0.288328	0.146634	0.999782
273	C	0.380971	0.133639	0.004819
274	C	0.362774	0.09777	0.001689
275	C	0.38138	0.080281	0.00115
276	C	0.417663	0.098108	0.004246
277	H	0.368185	0.054202	0.999445
278	C	0.381493	0.306359	0.004627
279	H	0.368342	0.319299	0.002797
280	C	0.471106	0.042903	0.33206
281	C	0.436322	0.080225	0.336788
282	N	0.425088	0.051862	0.310855
283	C	0.440711	0.032842	0.307066
284	N	0.427222	0.004981	0.277055
285	O	0.396781	0.984093	0.287057
286	O	0.427731	0.014972	0.237451
287	C	0.470113	0.432993	0.334635
288	C	0.43622	0.361067	0.339175
289	N	0.424618	0.377918	0.313309
290	C	0.439842	0.412503	0.309552
291	N	0.426134	0.4266	0.279429
292	O	0.395639	0.416831	0.289424
293	O	0.426739	0.417106	0.239857
294	C	0.326572	0.08174	0.000489
295	N	0.313008	0.084662	0.294278
296	C	0.282201	0.082791	0.290505
297	C	0.264345	0.081632	0.996763
298	H	0.275497	0.088267	0.260051
299	O	0.308235	0.086489	0.115232
300	N	0.434341	0.235592	0.306819
301	C	0.436459	0.206827	0.303598
302	H	0.43472	0.196494	0.272387
303	O	0.415234	0.220731	0.126115
304	O	0.451801	0.268112	0.108886
305	C	0.265195	0.188367	0.00462
306	N	0.2814	0.204237	0.299171
307	C	0.310252	0.235194	0.297601
308	C	0.326774	0.250604	0.005038
309	H	0.322276	0.243927	0.267296
310	O	0.288445	0.199747	0.119749
311	C	0.489505	0.024691	0.332657
312	C	0.471859	0.488655	0.334986
313	C	0.488786	0.469544	0.334232
314	H	0.445959	0.475973	0.33904
315	C	0.262107	0.133691	0.333217
316	H	0.288328	0.146634	0.333114
317	C	0.416871	0.15215	0.340607
318	C	0.380971	0.133639	0.338154
319	C	0.362774	0.09777	0.335022
320	C	0.38138	0.080281	0.334483
321	C	0.417663	0.098108	0.337581
322	C	0.434956	0.134268	0.340452
323	H	0.368185	0.054202	0.332778
324	H	0.461051	0.14798	0.341446
325	H	0.367753	0.146639	0.338612
326	C	0.362846	0.270362	0.339579
327	C	0.380898	0.252528	0.342588
328	C	0.416816	0.269767	0.344266
329	C	0.435025	0.305722	0.343329
330	C	0.417758	0.324626	0.340391
331	C	0.381493	0.306359	0.337959
332	H	0.461128	0.318044	0.343868
333	H	0.368342	0.319299	0.33613
334	H	0.367572	0.226326	0.343339
335	C	0.471106	0.042903	0.665395
336	N	0.482679	0.071598	0.357588
337	C	0.466988	0.090458	0.360688
338	C	0.436322	0.080225	0.670122
339	N	0.425088	0.051862	0.644189
340	C	0.440711	0.032842	0.640398
341	H	0.477254	0.111269	0.381388
342	N	0.427222	0.004981	0.610388
343	O	0.396781	0.984093	0.620388
344	O	0.427731	0.014972	0.570786
345	C	0.470113	0.432993	0.667969
346	N	0.482035	0.416109	0.360047
347	C	0.466755	0.381634	0.363151
348	C	0.43622	0.361067	0.672511
349	N	0.424618	0.377918	0.646641
350	C	0.439842	0.412503	0.642885
351	H	0.477223	0.37126	0.383818
352	N	0.426134	0.4266	0.612763
353	O	0.395639	0.416831	0.622757
354	O	0.426739	0.417106	0.573191
355	C	0.326572	0.08174	0.333823
356	N	0.313008	0.084662	0.627612
357	C	0.282201	0.082791	0.623838
358	C	0.264345	0.081632	0.330098
359	N	0.278897	0.080439	0.369677
360	C	0.30801	0.078619	0.373811
361	H	0.275497	0.088267	0.593383
362	N	0.322584	0.08025	0.416638
363	O	0.308235	0.086489	0.448565
364	O	0.319778	0.051775	0.42494
365	C	0.432601	0.249606	0.346557
366	N	0.434341	0.235592	0.640152
367	C	0.436459	0.206827	0.636931
368	C	0.432808	0.188027	0.343164
369	N	0.429514	0.201347	0.382598
370	C	0.431009	0.232043	0.386884
371	H	0.43472	0.196494	0.605722
372	N	0.424629	0.242803	0.428791
373	O	0.415234	0.220731	0.459448
374	O	0.451801	0.268112	0.442217
375	C	0.265195	0.188367	0.337955
376	N	0.2814	0.204237	0.632504
377	C	0.310252	0.235194	0.630934
378	C	0.326774	0.250604	0.33837
379	N	0.311321	0.233852	0.377015
380	C	0.280542	0.204472	0.379313
381	H	0.322276	0.243927	0.600627
382	N	0.267722	0.187362	0.42086
383	O	0.288445	0.199747	0.453083
384	C	0.489505	0.024691	0.665991
385	C	0.471859	0.488655	0.668319
386	C	0.488786	0.469544	0.667565
387	H	0.445959	0.475973	0.672373
388	C	0.262107	0.133691	0.66655
389	H	0.288328	0.146634	0.666446
390	C	0.416871	0.15215	0.673943
391	C	0.380971	0.133639	0.671486
392	C	0.362774	0.09777	0.668356
393	C	0.38138	0.080281	0.667817
394	C	0.417663	0.098108	0.670914
395	C	0.434956	0.134268	0.673784
396	H	0.368185	0.054202	0.666112
397	H	0.461051	0.14798	0.674778
398	H	0.367753	0.146639	0.671945
399	C	0.362846	0.270362	0.672912
400	C	0.380898	0.252528	0.67592
401	C	0.416816	0.269767	0.677598
402	C	0.435025	0.305722	0.676662
403	C	0.417758	0.324626	0.673724
404	C	0.381493	0.306359	0.671291
405	H	0.461128	0.318044	0.677201
406	H	0.368342	0.319299	0.669462
407	H	0.367572	0.226326	0.676672
408	C	0.471106	0.042903	0.998727
409	N	0.482679	0.071598	0.69092
410	C	0.466988	0.090458	0.69402
411	C	0.436322	0.080225	0.003454
412	N	0.425088	0.051862	0.977521
413	C	0.440711	0.032842	0.973731
414	H	0.477254	0.111269	0.714721
415	N	0.427222	0.004981	0.943721
416	O	0.396781	0.984093	0.953724
417	O	0.427731	0.014972	0.904118
418	C	0.470113	0.432993	0.001301
419	N	0.482035	0.416109	0.69338
420	C	0.466755	0.381634	0.696486
421	N	0.424618	0.377918	0.979974
422	C	0.439842	0.412503	0.976217
423	H	0.477223	0.37126	0.71715
424	N	0.426134	0.4266	0.946096
425	O	0.395639	0.416831	0.956089
426	O	0.426739	0.417106	0.906524
427	C	0.326572	0.08174	0.667157
428	N	0.313008	0.084662	0.960944
429	C	0.282201	0.082791	0.957171
430	C	0.264345	0.081632	0.663431
431	N	0.278897	0.080439	0.703009
432	C	0.30801	0.078619	0.707143
433	H	0.275497	0.088267	0.926716
434	N	0.322584	0.08025	0.74997
435	O	0.308235	0.086489	0.781898
436	O	0.319778	0.051775	0.758272
437	C	0.432601	0.249606	0.679889
438	N	0.434341	0.235592	0.973485
439	C	0.436459	0.206827	0.970264
440	C	0.432808	0.188027	0.676497
441	N	0.429514	0.201347	0.715931
442	C	0.431009	0.232043	0.720216
443	H	0.43472	0.196494	0.939054
444	N	0.424629	0.242803	0.762127
445	O	0.415234	0.220731	0.79278
446	O	0.451801	0.268112	0.775553
447	C	0.265195	0.188367	0.671288
448	N	0.2814	0.204237	0.965836
449	C	0.310252	0.235194	0.964266
450	C	0.326774	0.250604	0.671705
451	N	0.311321	0.233852	0.710348
452	C	0.280542	0.204472	0.712646
453	H	0.322276	0.243927	0.933963
454	N	0.267722	0.187362	0.754192
455	O	0.288445	0.199747	0.786416
456	C	0.489504	0.524691	0.999324
457	C	0.471859	0.988655	0.001652
458	C	0.488787	0.969547	0.000897
459	H	0.445959	0.975973	0.005706
460	C	0.262108	0.633691	0.999883
461	H	0.288329	0.646635	0.999779
462	C	0.380971	0.63364	0.004819
463	C	0.362773	0.59777	0.001689
464	C	0.381381	0.580281	0.00115
465	C	0.417664	0.598109	0.004246
466	H	0.368185	0.554203	0.999445
467	C	0.381494	0.80636	0.004627
468	H	0.368342	0.819299	0.002794
469	C	0.471105	0.542904	0.33206
470	C	0.436323	0.580225	0.336788
471	N	0.425088	0.551862	0.310856
472	C	0.440709	0.532841	0.307067
473	N	0.42722	0.504981	0.277057
474	O	0.396778	0.48409	0.28706
475	O	0.427729	0.51497	0.237453
476	C	0.470114	0.932994	0.334635
477	C	0.43622	0.861067	0.339175
478	N	0.424619	0.877919	0.313309
479	C	0.439842	0.912503	0.309552
480	N	0.426134	0.926601	0.279429
481	O	0.395641	0.916834	0.289425
482	O	0.426739	0.917106	0.239857
483	C	0.326574	0.58174	0.000489
484	N	0.313008	0.584662	0.294278
485	C	0.282202	0.58279	0.290505
486	C	0.264346	0.581632	0.996763
487	H	0.275499	0.588268	0.260051
488	O	0.308236	0.586488	0.115232
489	N	0.434344	0.735594	0.306819
490	C	0.43646	0.706828	0.303598
491	H	0.434721	0.696495	0.272387
492	O	0.415234	0.720732	0.126115
493	O	0.451802	0.768113	0.108886
494	C	0.265196	0.688368	0.00462
495	N	0.281401	0.704237	0.299171
496	C	0.310253	0.735196	0.297601
497	C	0.326774	0.750604	0.005038
498	H	0.322277	0.743927	0.267295
499	O	0.288444	0.699747	0.119749
500	C	0.489504	0.524691	0.332657
501	C	0.471859	0.988655	0.334986
502	C	0.488787	0.969547	0.334232
503	H	0.445959	0.975973	0.33904
504	C	0.262108	0.633691	0.333217
505	H	0.288329	0.646635	0.333114
506	C	0.416871	0.652151	0.340607
507	C	0.380971	0.63364	0.338154
508	C	0.362773	0.59777	0.335022
509	C	0.381381	0.580281	0.334483
510	C	0.417664	0.598109	0.337581
511	C	0.434956	0.634267	0.340452
512	H	0.368185	0.554203	0.332778
513	H	0.461052	0.647979	0.341446
514	H	0.367754	0.64664	0.338612
515	C	0.362848	0.770362	0.339579
516	C	0.380899	0.752529	0.342588
517	C	0.416817	0.769768	0.344266
518	C	0.435026	0.805722	0.343329
519	C	0.41776	0.824626	0.340391
520	C	0.381494	0.80636	0.337959
521	H	0.461127	0.818044	0.343868
522	H	0.368342	0.819299	0.33613
523	H	0.367574	0.726326	0.343339
524	C	0.471105	0.542904	0.665395
525	N	0.482679	0.571598	0.357588
526	C	0.46699	0.590458	0.360684
527	C	0.436323	0.580225	0.670122
528	N	0.425088	0.551862	0.644189
529	C	0.440709	0.532841	0.640402
530	H	0.477256	0.61127	0.381385
531	N	0.42722	0.504981	0.610391
532	O	0.396778	0.48409	0.620391
533	O	0.427729	0.51497	0.570786
534	C	0.470114	0.932994	0.667969
535	N	0.482036	0.916109	0.360047
536	C	0.466756	0.881634	0.363151
537	C	0.43622	0.861067	0.672511
538	N	0.424619	0.877919	0.646641
539	C	0.439842	0.912503	0.642885
540	H	0.477225	0.87126	0.383818
541	N	0.426134	0.926601	0.612763
542	O	0.395641	0.916834	0.622757
543	O	0.426739	0.917106	0.573191
544	C	0.326574	0.58174	0.333822
545	N	0.313008	0.584662	0.627612
546	C	0.282202	0.58279	0.623838
547	C	0.264346	0.581632	0.330098
548	N	0.278897	0.580439	0.369677
549	C	0.308012	0.578621	0.373811
550	H	0.275499	0.588268	0.593383
551	N	0.322584	0.58025	0.416638
552	O	0.308236	0.586488	0.448565
553	O	0.319777	0.551776	0.42494
554	C	0.432601	0.749607	0.346557
555	N	0.434344	0.735594	0.640152
556	C	0.43646	0.706828	0.636931
557	C	0.432808	0.688026	0.343164
558	N	0.429515	0.701348	0.382598
559	C	0.431009	0.732044	0.386884
560	H	0.434721	0.696495	0.605722
561	N	0.424628	0.742803	0.428791
562	O	0.415234	0.720732	0.459448
563	O	0.451802	0.768113	0.442217
564	C	0.265196	0.688368	0.337952
565	N	0.281401	0.704237	0.632504
566	C	0.310253	0.735196	0.630934
567	C	0.326774	0.750604	0.33837
568	N	0.311321	0.733852	0.377015
569	C	0.280542	0.704472	0.379313
570	H	0.322277	0.743927	0.600627
571	N	0.267723	0.687363	0.42086
572	O	0.288444	0.699747	0.453083
573	C	0.489504	0.524691	0.665991
574	C	0.471859	0.988655	0.668319
575	C	0.488787	0.969547	0.667565
576	H	0.445959	0.975973	0.672373
577	C	0.262108	0.633691	0.66655
578	H	0.288329	0.646635	0.666446
579	C	0.416871	0.652151	0.673943
580	C	0.380971	0.63364	0.671486
581	C	0.362773	0.59777	0.668356
582	C	0.381381	0.580281	0.667817
583	C	0.417664	0.598109	0.670914
584	C	0.434956	0.634267	0.673784
585	H	0.368185	0.554203	0.666112
586	H	0.461052	0.647979	0.674778
587	H	0.367754	0.64664	0.671945
588	C	0.362848	0.770362	0.672912
589	C	0.380899	0.752529	0.67592
590	C	0.416817	0.769768	0.677598
591	C	0.435026	0.805722	0.676662
592	C	0.41776	0.824626	0.673724
593	C	0.381494	0.80636	0.671291
594	H	0.461127	0.818044	0.677201
595	H	0.368342	0.819299	0.669462
596	H	0.367574	0.726326	0.676672
597	C	0.471105	0.542904	0.998727
598	N	0.482679	0.571598	0.69092
599	C	0.46699	0.590458	0.69402
600	C	0.436323	0.580225	0.003454
601	N	0.425088	0.551862	0.977521
602	C	0.440709	0.532841	0.973734
603	H	0.477256	0.61127	0.714721
604	N	0.42722	0.504981	0.943724
605	O	0.396778	0.48409	0.953727
606	O	0.427729	0.51497	0.904118
607	C	0.470114	0.932994	0.001301
608	N	0.482036	0.916109	0.69338
609	C	0.466756	0.881634	0.696483
610	N	0.424619	0.877919	0.979974
611	C	0.439842	0.912503	0.976217
612	H	0.477225	0.87126	0.71715
613	N	0.426134	0.926601	0.946096
614	O	0.395641	0.916834	0.956092
615	O	0.426739	0.917106	0.906524
616	C	0.326574	0.58174	0.667157
617	N	0.313008	0.584662	0.960944
618	C	0.282202	0.58279	0.957171
619	C	0.264346	0.581632	0.663431
620	N	0.278897	0.580439	0.703009
621	C	0.308012	0.578621	0.707143
622	H	0.275499	0.588268	0.926716
623	N	0.322584	0.58025	0.74997
624	O	0.308236	0.586488	0.781898
625	O	0.319777	0.551776	0.758272
626	C	0.432601	0.749607	0.679889
627	N	0.434344	0.735594	0.973485
628	C	0.43646	0.706828	0.970264
629	C	0.432808	0.688026	0.676497
630	N	0.429515	0.701348	0.715931
631	C	0.431009	0.732044	0.720216
632	H	0.434721	0.696495	0.939054
633	N	0.424628	0.742803	0.762127
634	O	0.415234	0.720732	0.79278
635	O	0.451802	0.768113	0.775553
636	C	0.265196	0.688368	0.671288
637	N	0.281401	0.704237	0.965836
638	C	0.310253	0.735196	0.964266
639	C	0.326774	0.750604	0.671705
640	N	0.311321	0.733852	0.710348
641	C	0.280542	0.704472	0.712646
642	H	0.322277	0.743927	0.933963
643	N	0.267723	0.687363	0.754192
644	O	0.288444	0.699747	0.786416
645	C	0.544116	0.023991	0.998896
646	C	0.525696	0.041819	0.998828
647	C	0.989505	0.024691	0.999324
648	C	0.971859	0.488655	0.001652
649	C	0.988786	0.469544	0.000897
650	C	0.524914	0.487857	0.000715
651	H	0.945959	0.475973	0.005706
652	H	0.537485	0.474379	0.002316
653	H	0.538925	0.067902	0.997022
654	C	0.74435	0.097772	0.997875
655	C	0.762107	0.133691	0.999883
656	C	0.744856	0.152336	0.00239
657	C	0.70883	0.134393	0.003555
658	C	0.689823	0.098157	0.001433
659	C	0.70826	0.080315	0.998353
660	H	0.696481	0.148121	0.004782
661	H	0.695365	0.054214	0.997336
662	H	0.788328	0.146634	0.999782
663	C	0.880971	0.133639	0.004819
664	C	0.862774	0.09777	0.001689
665	C	0.88138	0.080281	0.00115
666	C	0.917663	0.098108	0.004246
667	H	0.868185	0.054202	0.999445
668	C	0.881493	0.306359	0.004627
669	H	0.868341	0.319299	0.002797
670	C	0.58083	0.041987	0.331408
671	C	0.653185	0.080003	0.334712
672	N	0.63582	0.051004	0.309928
673	C	0.601124	0.031656	0.306848
674	N	0.586639	0.003344	0.277598
675	O	0.595868	0.982377	0.28858
676	O	0.596098	0.012644	0.237784
677	C	0.971106	0.042903	0.33206
678	C	0.936322	0.080225	0.336788
679	N	0.925088	0.051862	0.310855
680	C	0.940711	0.032842	0.307066
681	N	0.927223	0.004981	0.277055
682	O	0.896781	0.984093	0.287057
683	O	0.927731	0.014972	0.237451
684	C	0.970113	0.432993	0.334635
685	C	0.93622	0.361067	0.339175
686	N	0.924618	0.377918	0.313309
687	C	0.939842	0.412503	0.309552
688	N	0.926133	0.4266	0.279429
689	O	0.895639	0.416831	0.289424
690	O	0.926739	0.417106	0.239857
691	C	0.826572	0.08174	0.000489
692	N	0.813008	0.084662	0.294278
693	C	0.782201	0.082791	0.290505
694	C	0.764345	0.081632	0.996763
695	H	0.775497	0.088267	0.260051
696	O	0.808235	0.086489	0.115232
697	N	0.934344	0.235592	0.306819
698	C	0.936459	0.206827	0.303598
699	H	0.93472	0.196494	0.272387
700	O	0.915234	0.220731	0.126115
701	O	0.951801	0.268112	0.108886
702	C	0.765194	0.188367	0.00462
703	N	0.781399	0.204237	0.299171
704	C	0.810251	0.235194	0.297601
705	C	0.826774	0.250604	0.005038
706	H	0.822277	0.243927	0.267296
707	O	0.788444	0.199747	0.119749
708	C	0.544116	0.023991	0.332229
709	C	0.525696	0.041819	0.332163
710	C	0.989505	0.024691	0.332657
711	C	0.971859	0.488655	0.334986
712	C	0.988786	0.469544	0.334232
713	C	0.524914	0.487857	0.334048
714	H	0.945959	0.475973	0.33904
715	H	0.537485	0.474379	0.335649
716	H	0.538925	0.067902	0.330357
717	C	0.74435	0.097772	0.33121
718	C	0.762107	0.133691	0.333217
719	C	0.744856	0.152336	0.335722
720	C	0.70883	0.134393	0.336891
721	C	0.689823	0.098157	0.334768
722	C	0.70826	0.080315	0.331689
723	H	0.696481	0.148121	0.338114
724	H	0.695365	0.054214	0.330671
725	H	0.788328	0.146634	0.333114
726	C	0.916871	0.15215	0.340607
727	C	0.880971	0.133639	0.338154
728	C	0.862774	0.09777	0.335022
729	C	0.88138	0.080281	0.334483
730	C	0.917663	0.098108	0.337581
731	C	0.934956	0.134268	0.340452
732	H	0.868185	0.054202	0.332778
733	H	0.961051	0.14798	0.341446
734	H	0.867753	0.146639	0.338612
735	C	0.862846	0.270362	0.339579
736	C	0.880898	0.252528	0.342588
737	C	0.916816	0.269767	0.344266
738	C	0.935025	0.305722	0.343329
739	C	0.917758	0.324626	0.340391
740	C	0.881493	0.306359	0.337959
741	H	0.961128	0.318044	0.343868
742	H	0.868341	0.319299	0.33613
743	H	0.867572	0.226326	0.343339
744	C	0.58083	0.041987	0.664741
745	N	0.598215	0.071284	0.355816
746	C	0.632801	0.090464	0.358242
747	C	0.653185	0.080003	0.668046
748	N	0.63582	0.051004	0.643262
749	C	0.601124	0.031656	0.640183
750	H	0.643415	0.111711	0.378151
751	N	0.586639	0.003344	0.61093
752	O	0.595868	0.982377	0.621914
753	O	0.596098	0.012644	0.571116
754	C	0.971106	0.042903	0.665395
755	N	0.982679	0.071598	0.357588
756	C	0.966988	0.090458	0.360688
757	C	0.936322	0.080225	0.670122
758	N	0.925088	0.051862	0.644189
759	C	0.940711	0.032842	0.640398
760	H	0.977254	0.111269	0.381388
761	N	0.927223	0.004981	0.610388
762	O	0.896781	0.984093	0.620388
763	O	0.927731	0.014972	0.570786
764	C	0.970113	0.432993	0.667969
765	N	0.982035	0.416109	0.360047
766	C	0.966755	0.381634	0.363151
767	C	0.93622	0.361067	0.672511
768	N	0.924618	0.377918	0.646641
769	C	0.939842	0.412503	0.642885
770	H	0.977225	0.37126	0.383818
771	N	0.926133	0.4266	0.612763
772	O	0.895639	0.416831	0.622757
773	O	0.926739	0.417106	0.573191
774	C	0.826572	0.08174	0.333823
775	N	0.813008	0.084662	0.627612
776	C	0.782201	0.082791	0.623838
777	C	0.764345	0.081632	0.330098
778	N	0.778897	0.080439	0.369677
779	C	0.80801	0.078619	0.373811
780	H	0.775497	0.088267	0.593383
781	N	0.822584	0.08025	0.416638
782	O	0.808235	0.086489	0.448565
783	O	0.819778	0.051775	0.42494
784	C	0.932601	0.249606	0.346557
785	N	0.934344	0.235592	0.640152
786	C	0.936459	0.206827	0.636931
787	C	0.932808	0.188027	0.343164
788	N	0.929514	0.201347	0.382598
789	C	0.931009	0.232043	0.386884
790	H	0.93472	0.196494	0.605722
791	N	0.924629	0.242803	0.428791
792	O	0.915234	0.220731	0.459448
793	O	0.951801	0.268112	0.442217
794	C	0.765194	0.188367	0.337955
795	N	0.781399	0.204237	0.632504
796	C	0.810251	0.235194	0.630934
797	C	0.826774	0.250604	0.33837
798	N	0.811321	0.233852	0.377015
799	C	0.780542	0.204472	0.379313
800	H	0.822277	0.243927	0.600627
801	N	0.767721	0.187362	0.42086
802	O	0.788444	0.199747	0.453083
803	O	0.742134	0.189698	0.43154
804	C	0.544116	0.023991	0.665563
805	C	0.525696	0.041819	0.665496
806	C	0.989505	0.024691	0.665991
807	C	0.971859	0.488655	0.668319
808	C	0.988786	0.469544	0.667565
809	C	0.524914	0.487857	0.667383
810	H	0.945959	0.475973	0.672373
811	H	0.537485	0.474379	0.668983
812	H	0.538925	0.067902	0.66369
813	C	0.74435	0.097772	0.664542
814	C	0.762107	0.133691	0.66655
815	C	0.744856	0.152336	0.669054
816	C	0.70883	0.134393	0.670223
817	C	0.689823	0.098157	0.6681
818	C	0.70826	0.080315	0.665021
819	H	0.696481	0.148121	0.671446
820	H	0.695365	0.054214	0.664003
821	H	0.788328	0.146634	0.666446
822	C	0.916871	0.15215	0.673943
823	C	0.880971	0.133639	0.671486
824	C	0.862774	0.09777	0.668356
825	C	0.88138	0.080281	0.667817
826	C	0.917663	0.098108	0.670914
827	C	0.934956	0.134268	0.673784
828	H	0.868185	0.054202	0.666112
829	H	0.961051	0.14798	0.674778
830	H	0.867753	0.146639	0.671945
831	C	0.862846	0.270362	0.672912
832	C	0.880898	0.252528	0.67592
833	C	0.916816	0.269767	0.677598
834	C	0.935025	0.305722	0.676662
835	C	0.917758	0.324626	0.673724
836	C	0.881493	0.306359	0.671291
837	H	0.961128	0.318044	0.677201
838	H	0.868341	0.319299	0.669462
839	H	0.867572	0.226326	0.676672
840	C	0.58083	0.041987	0.998074
841	N	0.598215	0.071284	0.689148
842	C	0.632801	0.090464	0.691574
843	C	0.653185	0.080003	0.001379
844	N	0.63582	0.051004	0.976595
845	C	0.601124	0.031656	0.973515
846	H	0.643415	0.111711	0.711486
847	N	0.586639	0.003344	0.944263
848	O	0.595868	0.982377	0.955247
849	O	0.596098	0.012644	0.904448
850	C	0.971106	0.042903	0.998727
851	N	0.982679	0.071598	0.69092
852	C	0.966988	0.090458	0.69402
853	C	0.936322	0.080225	0.003454
854	N	0.925088	0.051862	0.977521
855	C	0.940711	0.032842	0.973731
856	H	0.977254	0.111269	0.714721
857	N	0.927223	0.004981	0.943721
858	O	0.896781	0.984093	0.953724
859	O	0.927731	0.014972	0.904118
860	C	0.970113	0.432993	0.001301
861	N	0.982035	0.416109	0.69338
862	C	0.966755	0.381634	0.696486
863	N	0.924618	0.377918	0.979974
864	C	0.939842	0.412503	0.976217
865	H	0.977225	0.37126	0.71715
866	N	0.926133	0.4266	0.946096
867	O	0.895639	0.416831	0.956089
868	O	0.926739	0.417106	0.906524
869	C	0.826572	0.08174	0.667157
870	N	0.813008	0.084662	0.960944
871	C	0.782201	0.082791	0.957171
872	C	0.764345	0.081632	0.663431
873	N	0.778897	0.080439	0.703009
874	C	0.80801	0.078619	0.707143
875	H	0.775497	0.088267	0.926716
876	N	0.822584	0.08025	0.74997
877	O	0.808235	0.086489	0.781898
878	O	0.819778	0.051775	0.758272
879	C	0.932601	0.249606	0.679889
880	N	0.934344	0.235592	0.973485
881	C	0.936459	0.206827	0.970264
882	C	0.932808	0.188027	0.676497
883	N	0.929514	0.201347	0.715931
884	C	0.931009	0.232043	0.720216
885	H	0.93472	0.196494	0.939054
886	N	0.924629	0.242803	0.762127
887	O	0.915234	0.220731	0.79278
888	O	0.951801	0.268112	0.775553
889	C	0.765194	0.188367	0.671288
890	N	0.781399	0.204237	0.965836
891	C	0.810251	0.235194	0.964266
892	C	0.826774	0.250604	0.671705
893	N	0.811321	0.233852	0.710348
894	C	0.780542	0.204472	0.712646
895	H	0.822277	0.243927	0.933963
896	N	0.767721	0.187362	0.754192
897	O	0.788444	0.199747	0.786416
898	O	0.742134	0.189698	0.764873
899	C	0.544115	0.523992	0.998896
900	C	0.525698	0.54182	0.998828
901	C	0.989504	0.524691	0.999324
902	C	0.971858	0.988655	0.001652
903	C	0.988787	0.969547	0.000897
904	C	0.524914	0.987857	0.000715
905	H	0.94596	0.975973	0.005706
906	H	0.537485	0.97438	0.002316
907	H	0.538927	0.567903	0.997022
908	C	0.74435	0.597772	0.997875
909	C	0.762108	0.633691	0.999883
910	C	0.744856	0.652337	0.00239
911	C	0.708832	0.634394	0.003555
912	C	0.689822	0.598157	0.001433
913	C	0.708262	0.580317	0.998353
914	H	0.69648	0.648122	0.004779
915	H	0.695365	0.554213	0.997336
916	H	0.788329	0.646635	0.999779
917	C	0.880971	0.63364	0.004819
918	C	0.862773	0.59777	0.001689
919	C	0.881381	0.580281	0.00115
920	C	0.917664	0.598109	0.004246
921	H	0.868184	0.554203	0.999445
922	C	0.881494	0.80636	0.004627
923	H	0.868342	0.819299	0.002794
924	C	0.580831	0.541988	0.331408
925	C	0.653186	0.580003	0.334711
926	N	0.635822	0.551005	0.309927
927	C	0.601126	0.531658	0.306848
928	N	0.586638	0.503344	0.277598
929	O	0.595868	0.482376	0.28858
930	O	0.596097	0.512644	0.237784
931	C	0.971105	0.542904	0.33206
932	C	0.936323	0.580225	0.336788
933	N	0.925088	0.551862	0.310856
934	C	0.940709	0.532841	0.307067
935	N	0.927219	0.504981	0.277057
936	O	0.896779	0.48409	0.28706
937	O	0.927729	0.51497	0.237453
938	C	0.970114	0.932994	0.334635
939	C	0.936221	0.861067	0.339175
940	N	0.924619	0.877919	0.313309
941	C	0.939841	0.912503	0.309552
942	N	0.926134	0.926601	0.279429
943	O	0.895641	0.916834	0.289425
944	O	0.926739	0.917106	0.239857
945	C	0.826574	0.58174	0.000489
946	N	0.813009	0.584662	0.294278
947	C	0.782201	0.58279	0.290505
948	C	0.764347	0.581632	0.996763
949	H	0.775498	0.588268	0.260051
950	O	0.808236	0.586488	0.115232
951	N	0.934343	0.735594	0.306819
952	C	0.936459	0.706828	0.303598
953	H	0.934721	0.696495	0.272387
954	O	0.915235	0.720732	0.126115
955	O	0.951801	0.768113	0.108886
956	C	0.765196	0.688368	0.00462
957	N	0.781401	0.704237	0.299171
958	C	0.810253	0.735196	0.297601
959	C	0.826775	0.750604	0.005038
960	H	0.822276	0.743927	0.267295
961	O	0.788445	0.699747	0.119749
962	C	0.544115	0.523992	0.332229
963	C	0.525698	0.54182	0.332163
964	C	0.989504	0.524691	0.332657
965	C	0.971858	0.988655	0.334986
966	C	0.988787	0.969547	0.334232
967	C	0.524914	0.987857	0.334049
968	H	0.94596	0.975973	0.33904
969	H	0.537485	0.97438	0.335649
970	H	0.538927	0.567903	0.330357
971	C	0.74435	0.597772	0.331209
972	C	0.762108	0.633691	0.333217
973	C	0.744856	0.652337	0.335722
974	C	0.708832	0.634394	0.33689
975	C	0.689822	0.598157	0.334768
976	C	0.708262	0.580317	0.331689
977	H	0.69648	0.648122	0.338114
978	H	0.695365	0.554213	0.33067
979	H	0.788329	0.646635	0.333114
980	C	0.916871	0.652151	0.340607
981	C	0.880971	0.63364	0.338154
982	C	0.862773	0.59777	0.335022
983	C	0.881381	0.580281	0.334483
984	C	0.917664	0.598109	0.337581
985	C	0.934957	0.634267	0.340452
986	H	0.868184	0.554203	0.332778
987	H	0.961052	0.647979	0.341446
988	H	0.867754	0.64664	0.338612
989	C	0.862847	0.770362	0.339579
990	C	0.8809	0.752529	0.342588
991	C	0.916817	0.769768	0.344266
992	C	0.935026	0.805722	0.343329
993	C	0.91776	0.824626	0.340391
994	C	0.881494	0.80636	0.337959
995	H	0.961127	0.818044	0.343868
996	H	0.868342	0.819299	0.33613
997	H	0.867573	0.726326	0.343339
998	C	0.580831	0.541988	0.664741
999	N	0.598214	0.571284	0.355816
1000	C	0.6328	0.590464	0.358242
1001	C	0.653186	0.580003	0.668043
1002	N	0.635822	0.551005	0.643262
1003	C	0.601126	0.531658	0.640183
1004	H	0.643414	0.611711	0.378151
1005	N	0.586638	0.503344	0.61093
1006	O	0.595868	0.482376	0.621914
1007	O	0.596097	0.512644	0.571116
1008	C	0.971105	0.542904	0.665395
1009	N	0.98268	0.571598	0.357588
1010	C	0.966989	0.590458	0.360684
1011	C	0.936323	0.580225	0.670122
1012	N	0.925088	0.551862	0.644189
1013	C	0.940709	0.532841	0.640402
1014	H	0.977255	0.61127	0.381385
1015	N	0.927219	0.504981	0.610391
1016	O	0.896779	0.48409	0.620391
1017	O	0.927729	0.51497	0.570786
1018	C	0.970114	0.932994	0.667969
1019	N	0.982036	0.916109	0.360047
1020	C	0.966756	0.881634	0.363151
1021	C	0.936221	0.861067	0.672511
1022	N	0.924619	0.877919	0.646641
1023	C	0.939841	0.912503	0.642885
1024	H	0.977224	0.87126	0.383818
1025	N	0.926134	0.926601	0.612763
1026	O	0.895641	0.916834	0.622757
1027	O	0.926739	0.917106	0.573191
1028	C	0.826574	0.58174	0.333822
1029	N	0.813009	0.584662	0.627612
1030	C	0.782201	0.58279	0.623838
1031	C	0.764347	0.581632	0.330098
1032	N	0.778898	0.580439	0.369677
1033	C	0.808012	0.578621	0.373811
1034	H	0.775498	0.588268	0.593383
1035	N	0.822585	0.58025	0.416638
1036	O	0.808236	0.586488	0.448565
1037	O	0.819777	0.551776	0.42494
1038	C	0.9326	0.749607	0.346557
1039	N	0.934343	0.735594	0.640152
1040	C	0.936459	0.706828	0.636931
1041	C	0.932808	0.688026	0.343164
1042	N	0.929515	0.701348	0.382598
1043	C	0.931008	0.732044	0.386884
1044	H	0.934721	0.696495	0.605722
1045	N	0.924628	0.742803	0.428791
1046	O	0.915235	0.720732	0.459448
1047	O	0.951801	0.768113	0.442217
1048	C	0.765196	0.688368	0.337952
1049	N	0.781401	0.704237	0.632504
1050	C	0.810253	0.735196	0.630934
1051	C	0.826775	0.750604	0.33837
1052	N	0.811322	0.733852	0.377015
1053	C	0.780541	0.704472	0.379313
1054	H	0.822276	0.743927	0.600627
1055	N	0.767723	0.687363	0.42086
1056	O	0.788445	0.699747	0.453083
1057	O	0.742136	0.689699	0.43154
1058	C	0.544115	0.523992	0.665563
1059	C	0.525698	0.54182	0.665496
1060	C	0.989504	0.524691	0.665991
1061	C	0.971858	0.988655	0.668319
1062	C	0.988787	0.969547	0.667565
1063	C	0.524914	0.987857	0.667383
1064	H	0.94596	0.975973	0.672373
1065	H	0.537485	0.97438	0.668983
1066	H	0.538927	0.567903	0.66369
1067	C	0.74435	0.597772	0.664542
1068	C	0.762108	0.633691	0.66655
1069	C	0.744856	0.652337	0.669054
1070	C	0.708832	0.634394	0.670223
1071	C	0.689822	0.598157	0.6681
1072	C	0.708262	0.580317	0.665021
1073	H	0.69648	0.648122	0.671446
1074	H	0.695365	0.554213	0.664003
1075	H	0.788329	0.646635	0.666446
1076	C	0.916871	0.652151	0.673943
1077	C	0.880971	0.63364	0.671486
1078	C	0.862773	0.59777	0.668356
1079	C	0.881381	0.580281	0.667817
1080	C	0.917664	0.598109	0.670914
1081	C	0.934957	0.634267	0.673784
1082	H	0.868184	0.554203	0.666112
1083	H	0.961052	0.647979	0.674778
1084	H	0.867754	0.64664	0.671945
1085	C	0.862847	0.770362	0.672912
1086	C	0.8809	0.752529	0.67592
1087	C	0.916817	0.769768	0.677598
1088	C	0.935026	0.805722	0.676662
1089	C	0.91776	0.824626	0.673724
1090	C	0.881494	0.80636	0.671291
1091	H	0.961127	0.818044	0.677201
1092	H	0.868342	0.819299	0.669462
1093	H	0.867573	0.726326	0.676672
1094	C	0.580831	0.541988	0.998074
1095	N	0.598214	0.571284	0.689148
1096	C	0.6328	0.590464	0.691574
1097	C	0.653186	0.580003	0.001379
1098	N	0.635822	0.551005	0.976595
1099	C	0.601126	0.531658	0.973515
1100	H	0.643414	0.611711	0.711483
1101	N	0.586638	0.503344	0.944263
1102	O	0.595868	0.482376	0.955247
1103	O	0.596097	0.512644	0.904448
1104	C	0.971105	0.542904	0.998727
1105	N	0.98268	0.571598	0.69092
1106	C	0.966989	0.590458	0.69402
1107	C	0.936323	0.580225	0.003454
1108	N	0.925088	0.551862	0.977521
1109	C	0.940709	0.532841	0.973734
1110	H	0.977255	0.61127	0.714721
1111	N	0.927219	0.504981	0.943724
1112	O	0.896779	0.48409	0.953727
1113	O	0.927729	0.51497	0.904118
1114	C	0.970114	0.932994	0.001301
1115	N	0.982036	0.916109	0.69338
1116	C	0.966756	0.881634	0.696483
1117	N	0.924619	0.877919	0.979974
1118	C	0.939841	0.912503	0.976217
1119	H	0.977224	0.87126	0.71715
1120	N	0.926134	0.926601	0.946096
1121	O	0.895641	0.916834	0.956092
1122	O	0.926739	0.917106	0.906524
1123	C	0.826574	0.58174	0.667157
1124	N	0.813009	0.584662	0.960944
1125	C	0.782201	0.58279	0.957171
1126	C	0.764347	0.581632	0.663431
1127	N	0.778898	0.580439	0.703009
1128	C	0.808012	0.578621	0.707143
1129	H	0.775498	0.588268	0.926716
1130	N	0.822585	0.58025	0.74997
1131	O	0.808236	0.586488	0.781898
1132	O	0.819777	0.551776	0.758272
1133	C	0.9326	0.749607	0.679889
1134	N	0.934343	0.735594	0.973485
1135	C	0.936459	0.706828	0.970264
1136	C	0.932808	0.688026	0.676497
1137	N	0.929515	0.701348	0.715931
1138	C	0.931008	0.732044	0.720216
1139	H	0.934721	0.696495	0.939054
1140	N	0.924628	0.742803	0.762127
1141	O	0.915235	0.720732	0.79278
1142	O	0.951801	0.768113	0.775553
1143	C	0.765196	0.688368	0.671288
1144	N	0.781401	0.704237	0.965836
1145	C	0.810253	0.735196	0.964266
1146	C	0.826775	0.750604	0.671705
1147	N	0.811322	0.733852	0.710348
1148	C	0.780541	0.704472	0.712646
1149	H	0.822276	0.743927	0.933963
1150	N	0.767723	0.687363	0.754192
1151	O	0.788445	0.699747	0.786416
1152	O	0.742136	0.689699	0.764873
