data_C432H216N144O144_2018-02-15_10:45:47
#******************************************
#
# CIF file created by Zeo++
# Zeo++ is an open source package to
# analyze microporous materials
#
#*******************************************

_cell_length_a		45.633   
_cell_length_b		45.6329   
_cell_length_c		29.674   
_cell_angle_alpha		90   
_cell_angle_beta		90   
_cell_angle_gamma		120   

_symmetry_space_group_name_H-M		'P1'
_symmetry_Int_Tables_number		1
_symmetry_cell_setting		Monoclinic

loop_
_symmetry_equiv_pos_as_xyz
'+x,+y,+z'

loop_
_atom_site_label
_atom_site_type_symbol
_atom_site_fract_x
_atom_site_fract_y
_atom_site_fract_z
1	N	0.10482	0.309634	0.019054
2	C	0.043395	0.270114	0.353531
3	C	0.018003	0.235799	0.348365
4	H	0.024427	0.217519	0.343024
5	C	0.032648	0.294206	0.027719
6	N	0.058163	0.328303	0.034868
7	O	0.059676	0.348678	0.005334
8	O	0.05873	0.339224	0.073847
9	C	0.077698	0.277887	0.351273
10	H	0.08255	0.258416	0.347536
11	N	0.10482	0.309634	0.352389
12	C	0.043395	0.270114	0.686863
13	C	0.018003	0.235799	0.681697
14	H	0.024427	0.217519	0.676356
15	C	0.032648	0.294206	0.361053
16	N	0.058163	0.328303	0.368201
17	O	0.059676	0.348678	0.338666
18	O	0.05873	0.339224	0.407181
19	C	0.077698	0.277887	0.684605
20	H	0.08255	0.258416	0.680868
21	N	0.10482	0.309634	0.685721
22	C	0.043395	0.270114	0.020197
23	C	0.018003	0.235799	0.01503
24	H	0.024427	0.217519	0.00969
25	C	0.032648	0.294206	0.694385
26	N	0.058163	0.328303	0.701536
27	O	0.059676	0.348678	0.671998
28	O	0.05873	0.339224	0.740516
29	C	0.077698	0.277887	0.017938
30	H	0.08255	0.258416	0.014202
31	N	0.10482	0.809636	0.019054
32	C	0.043396	0.770113	0.353531
33	C	0.018004	0.735801	0.348365
34	H	0.024427	0.717518	0.343024
35	C	0.032647	0.794205	0.027719
36	N	0.058163	0.828302	0.034868
37	O	0.059675	0.848677	0.005334
38	O	0.05873	0.839226	0.073847
39	C	0.077698	0.777889	0.351273
40	H	0.082551	0.758418	0.347536
41	N	0.10482	0.809636	0.352389
42	C	0.043396	0.770113	0.686863
43	C	0.018004	0.735801	0.681697
44	H	0.024427	0.717518	0.676356
45	C	0.032647	0.794205	0.361053
46	N	0.058163	0.828302	0.368201
47	O	0.059675	0.848677	0.338666
48	O	0.05873	0.839226	0.407181
49	C	0.077698	0.777889	0.684605
50	H	0.082551	0.758418	0.680868
51	N	0.10482	0.809636	0.685721
52	C	0.043396	0.770113	0.020197
53	C	0.018004	0.735801	0.01503
54	H	0.024427	0.717518	0.00969
55	C	0.032647	0.794205	0.694385
56	N	0.058163	0.828302	0.701536
57	O	0.059675	0.848677	0.671998
58	O	0.05873	0.839226	0.740516
59	C	0.077698	0.777889	0.017938
60	H	0.082551	0.758418	0.014202
61	C	0.190845	0.318791	0.018366
62	C	0.155192	0.303384	0.018341
63	C	0.138931	0.322886	0.018351
64	C	0.159176	0.358539	0.018334
65	C	0.194939	0.3748	0.018351
66	H	0.147594	0.372788	0.018729
67	H	0.140944	0.277553	0.018741
68	N	0.204098	0.297933	0.019071
69	N	0.185427	0.232604	0.034862
70	O	0.194386	0.175399	0.076249
71	O	0.16506	0.213749	0.005313
72	O	0.184941	0.166964	0.007753
73	O	0.174493	0.222238	0.073834
74	H	0.204077	0.489303	0.343014
75	H	0.18685	0.43118	0.347526
76	C	0.190845	0.318791	0.351698
77	C	0.155192	0.303384	0.351674
78	C	0.138931	0.322886	0.351685
79	C	0.159176	0.358539	0.351668
80	C	0.194939	0.3748	0.351685
81	H	0.147594	0.372788	0.352062
82	H	0.140944	0.277553	0.352076
83	N	0.204098	0.297933	0.352406
84	N	0.185427	0.232604	0.368197
85	O	0.194386	0.175399	0.409584
86	O	0.16506	0.213749	0.338646
87	O	0.184941	0.166964	0.341086
88	O	0.174493	0.222238	0.407167
89	H	0.204077	0.489303	0.676349
90	H	0.18685	0.43118	0.680858
91	C	0.190845	0.318791	0.685033
92	C	0.155192	0.303384	0.68501
93	C	0.138931	0.322886	0.685016
94	C	0.159176	0.358539	0.685
95	C	0.194939	0.3748	0.68502
96	H	0.147594	0.372788	0.685397
97	H	0.140944	0.277553	0.685407
98	N	0.204098	0.297933	0.685738
99	N	0.185427	0.232604	0.701529
100	O	0.194386	0.175399	0.742916
101	O	0.16506	0.213749	0.671978
102	O	0.184941	0.166964	0.674421
103	O	0.174493	0.222238	0.740503
104	H	0.204077	0.489303	0.009682
105	H	0.18685	0.43118	0.014192
106	C	0.190846	0.818793	0.018366
107	C	0.155192	0.803383	0.018341
108	C	0.138933	0.822887	0.018351
109	C	0.159176	0.858541	0.018334
110	C	0.19494	0.874801	0.018351
111	H	0.147594	0.872787	0.018729
112	H	0.140945	0.777552	0.018741
113	N	0.204097	0.797932	0.019071
114	N	0.185427	0.732605	0.034862
115	O	0.194386	0.6754	0.076249
116	O	0.165061	0.713751	0.005313
117	O	0.184941	0.666963	0.007753
118	O	0.174494	0.72224	0.073834
119	H	0.204078	0.989305	0.343014
120	H	0.186852	0.931181	0.347526
121	C	0.190846	0.818793	0.351698
122	C	0.155192	0.803383	0.351674
123	C	0.138933	0.822887	0.351685
124	C	0.159176	0.858541	0.351668
125	C	0.19494	0.874801	0.351685
126	H	0.147594	0.872787	0.352062
127	H	0.140945	0.777552	0.352076
128	N	0.204097	0.797932	0.352406
129	N	0.185427	0.732605	0.368197
130	O	0.194386	0.6754	0.409584
131	O	0.165061	0.713751	0.338646
132	O	0.184941	0.666963	0.341086
133	O	0.174494	0.72224	0.407167
134	H	0.204078	0.989305	0.676349
135	H	0.186852	0.931181	0.680858
136	C	0.190846	0.818793	0.685033
137	C	0.155192	0.803383	0.68501
138	C	0.138933	0.822887	0.685016
139	C	0.159176	0.858541	0.685
140	C	0.19494	0.874801	0.68502
141	H	0.147594	0.872787	0.685397
142	H	0.140945	0.777552	0.685407
143	N	0.204097	0.797932	0.685738
144	N	0.185427	0.732605	0.701529
145	O	0.194386	0.6754	0.742916
146	O	0.165061	0.713751	0.671978
147	O	0.184941	0.666963	0.674421
148	O	0.174494	0.72224	0.740503
149	H	0.204078	0.989305	0.009682
150	H	0.186852	0.931181	0.014192
151	C	0.210347	0.354554	0.018331
152	H	0.236178	0.366138	0.018746
153	N	0.215799	0.408912	0.019061
154	C	0.243617	0.276027	0.353535
155	C	0.23006	0.216364	0.029028
156	C	0.219526	0.241189	0.027726
157	N	0.207104	0.181587	0.037509
158	C	0.235845	0.302559	0.351284
159	H	0.255314	0.326881	0.347529
160	C	0.237702	0.470335	0.353538
161	C	0.228781	0.495728	0.348362
162	C	0.253053	0.030314	0.349582
163	H	0.244891	0.047322	0.345012
164	C	0.211173	0.436033	0.35128
165	C	0.210347	0.354554	0.351664
166	H	0.236178	0.366138	0.352079
167	N	0.215799	0.408912	0.352396
168	C	0.243617	0.276027	0.686867
169	C	0.23006	0.216364	0.362361
170	C	0.219526	0.241189	0.36106
171	N	0.207104	0.181587	0.370843
172	C	0.235845	0.302559	0.684615
173	H	0.255314	0.326881	0.680861
174	C	0.237702	0.470335	0.68687
175	C	0.228781	0.495728	0.681697
176	C	0.253053	0.030314	0.682914
177	H	0.244891	0.047322	0.678344
178	C	0.211173	0.436033	0.684612
179	C	0.210347	0.354554	0.685
180	H	0.236178	0.366138	0.685414
181	N	0.215799	0.408912	0.685728
182	C	0.243617	0.276027	0.0202
183	C	0.23006	0.216364	0.695696
184	C	0.219526	0.241189	0.694395
185	N	0.207104	0.181587	0.704175
186	C	0.235845	0.302559	0.017948
187	H	0.255314	0.326881	0.014194
188	C	0.237702	0.470335	0.020203
189	C	0.228781	0.495728	0.015029
190	C	0.253053	0.030314	0.016247
191	H	0.244891	0.047322	0.011678
192	C	0.211173	0.436033	0.017945
193	C	0.210349	0.854555	0.018331
194	H	0.236178	0.866137	0.018746
195	N	0.215799	0.908911	0.019061
196	C	0.243618	0.776029	0.353535
197	C	0.230061	0.716365	0.029028
198	C	0.219526	0.74119	0.027726
199	N	0.207106	0.681589	0.037509
200	C	0.235844	0.802558	0.351284
201	H	0.255314	0.82688	0.347529
202	C	0.237703	0.970337	0.353538
203	C	0.228781	0.99573	0.348362
204	C	0.253052	0.530314	0.349582
205	H	0.244891	0.547323	0.345012
206	C	0.211175	0.936035	0.35128
207	C	0.210349	0.854555	0.351664
208	H	0.236178	0.866137	0.352079
209	N	0.215799	0.908911	0.352396
210	C	0.243618	0.776029	0.686867
211	C	0.230061	0.716365	0.362361
212	C	0.219526	0.74119	0.36106
213	N	0.207106	0.681589	0.370843
214	C	0.235844	0.802558	0.684615
215	H	0.255314	0.82688	0.680861
216	C	0.237703	0.970337	0.68687
217	C	0.228781	0.99573	0.681697
218	C	0.253052	0.530314	0.682914
219	H	0.244891	0.547323	0.678344
220	C	0.211175	0.936035	0.684612
221	C	0.210349	0.854555	0.685
222	H	0.236178	0.866137	0.685414
223	N	0.215799	0.908911	0.685728
224	C	0.243618	0.776029	0.0202
225	C	0.230061	0.716365	0.695696
226	C	0.219526	0.74119	0.694395
227	N	0.207106	0.681589	0.704175
228	C	0.235844	0.802558	0.017948
229	H	0.255314	0.82688	0.014194
230	C	0.237703	0.970337	0.020203
231	C	0.228781	0.99573	0.015029
232	C	0.253052	0.530314	0.016247
233	H	0.244891	0.547323	0.011678
234	C	0.211175	0.936035	0.017945
235	H	0.258254	0.17692	0.026349
236	H	0.258254	0.17692	0.359682
237	H	0.258254	0.17692	0.693017
238	H	0.258255	0.676921	0.026349
239	H	0.258255	0.676921	0.359682
240	H	0.258255	0.676921	0.693017
241	C	0.323762	0.190469	0.019651
242	C	0.359505	0.207639	0.019534
243	C	0.377689	0.189967	0.019662
244	C	0.359117	0.154225	0.019541
245	C	0.323261	0.13604	0.019655
246	C	0.30609	0.154612	0.019537
247	H	0.372125	0.141375	0.019616
248	H	0.280234	0.141605	0.019608
249	H	0.372355	0.233496	0.019609
250	N	0.308715	0.209803	0.020353
251	N	0.412073	0.205015	0.020363
252	N	0.303926	0.101658	0.020362
253	C	0.277929	0.284947	0.348348
254	C	0.288243	0.260675	0.349562
255	C	0.264765	0.225991	0.022804
256	H	0.313417	0.268841	0.345015
257	H	0.296211	0.309654	0.343027
258	C	0.275872	0.201913	0.023019
259	C	0.287737	0.041519	0.022818
260	C	0.297365	0.016442	0.029043
261	C	0.272539	0.481082	0.027738
262	N	0.33214	0.028263	0.037528
263	N	0.281124	0.455568	0.034875
264	O	0.338326	0.02173	0.076269
265	O	0.299983	0.45406	0.00533
266	O	0.346766	0.020724	0.007774
267	O	0.291486	0.454998	0.073849
268	C	0.311817	0.076704	0.023031
269	H	0.336811	0.084079	0.026347
270	C	0.483417	0.225484	0.349578
271	C	0.472211	0.248965	0.02281
272	C	0.497288	0.283669	0.029031
273	H	0.466407	0.200314	0.345019
274	N	0.485469	0.30663	0.03749
275	O	0.492004	0.319366	0.076219
276	O	0.493005	0.328779	0.007715
277	C	0.437026	0.237858	0.023025
278	H	0.42965	0.255478	0.026343
279	C	0.323762	0.190469	0.352985
280	C	0.359505	0.207639	0.352867
281	C	0.377689	0.189967	0.352996
282	C	0.359117	0.154225	0.352874
283	C	0.323261	0.13604	0.352989
284	C	0.30609	0.154612	0.352871
285	H	0.372125	0.141375	0.352948
286	H	0.280234	0.141605	0.352942
287	H	0.372355	0.233496	0.352942
288	N	0.308715	0.209803	0.353686
289	N	0.412073	0.205015	0.353696
290	N	0.303926	0.101658	0.353696
291	C	0.277929	0.284947	0.68168
292	C	0.288243	0.260675	0.682893
293	C	0.264765	0.225991	0.35614
294	H	0.313417	0.268841	0.678347
295	H	0.296211	0.309654	0.676359
296	C	0.275872	0.201913	0.356352
297	C	0.287737	0.041519	0.356153
298	C	0.297365	0.016442	0.362377
299	C	0.272539	0.481082	0.361073
300	N	0.33214	0.028263	0.370863
301	N	0.281124	0.455568	0.368207
302	O	0.338326	0.02173	0.409604
303	O	0.299983	0.45406	0.338663
304	O	0.346766	0.020724	0.341106
305	O	0.291486	0.454998	0.407184
306	C	0.311817	0.076704	0.356365
307	H	0.336811	0.084079	0.359682
308	C	0.483417	0.225484	0.682914
309	C	0.472211	0.248965	0.356143
310	C	0.497288	0.283669	0.362364
311	H	0.466407	0.200314	0.678351
312	N	0.485469	0.30663	0.370823
313	O	0.492004	0.319366	0.409553
314	O	0.493005	0.328779	0.341049
315	C	0.437026	0.237858	0.356359
316	H	0.42965	0.255478	0.359678
317	C	0.323762	0.190469	0.686317
318	C	0.359505	0.207639	0.686203
319	C	0.377689	0.189967	0.686327
320	C	0.359117	0.154225	0.686209
321	C	0.323261	0.13604	0.686324
322	C	0.30609	0.154612	0.686203
323	H	0.372125	0.141375	0.686284
324	H	0.280234	0.141605	0.686273
325	H	0.372355	0.233496	0.686277
326	N	0.308715	0.209803	0.687022
327	N	0.412073	0.205015	0.687032
328	N	0.303926	0.101658	0.687028
329	C	0.277929	0.284947	0.015014
330	C	0.288243	0.260675	0.016226
331	C	0.264765	0.225991	0.689472
332	H	0.313417	0.268841	0.011681
333	H	0.296211	0.309654	0.009692
334	C	0.275872	0.201913	0.689687
335	C	0.287737	0.041519	0.689485
336	C	0.297365	0.016442	0.695709
337	C	0.272539	0.481082	0.694405
338	N	0.33214	0.028263	0.704195
339	N	0.281124	0.455568	0.701543
340	O	0.338326	0.02173	0.742936
341	O	0.299983	0.45406	0.671995
342	O	0.346766	0.020724	0.674442
343	O	0.291486	0.454998	0.740516
344	C	0.311817	0.076704	0.689697
345	H	0.336811	0.084079	0.693013
346	C	0.483417	0.225484	0.016245
347	C	0.472211	0.248965	0.689478
348	C	0.497288	0.283669	0.695699
349	H	0.466407	0.200314	0.011685
350	N	0.485469	0.30663	0.704158
351	O	0.492004	0.319366	0.742885
352	O	0.493005	0.328779	0.674381
353	C	0.437026	0.237858	0.689694
354	H	0.42965	0.255478	0.69301
355	C	0.323763	0.690468	0.019651
356	C	0.359506	0.70764	0.019534
357	C	0.37769	0.689967	0.019662
358	C	0.359118	0.654225	0.019541
359	C	0.323262	0.636042	0.019655
360	C	0.306091	0.654612	0.019537
361	H	0.372125	0.641376	0.019616
362	H	0.280235	0.641606	0.019608
363	H	0.372355	0.733495	0.019609
364	N	0.308715	0.709803	0.020353
365	N	0.412072	0.705016	0.020363
366	N	0.303927	0.601659	0.020362
367	C	0.27793	0.784949	0.348348
368	C	0.288244	0.760677	0.349562
369	C	0.264765	0.725993	0.022804
370	H	0.313416	0.76884	0.345015
371	H	0.296212	0.809656	0.343027
372	C	0.275872	0.701913	0.023019
373	C	0.287739	0.541521	0.022818
374	C	0.297365	0.516442	0.029043
375	C	0.272541	0.981084	0.027738
376	N	0.332141	0.528264	0.037528
377	N	0.281125	0.955569	0.034875
378	O	0.338326	0.52173	0.076269
379	O	0.299983	0.954059	0.00533
380	O	0.346767	0.520726	0.007774
381	O	0.291487	0.955	0.073849
382	C	0.311817	0.576706	0.023031
383	H	0.336811	0.58408	0.026347
384	C	0.483416	0.725484	0.349578
385	C	0.472212	0.748966	0.02281
386	C	0.497288	0.783671	0.029031
387	H	0.466408	0.700314	0.345019
388	N	0.485468	0.806629	0.03749
389	O	0.492005	0.819368	0.076219
390	O	0.493004	0.828778	0.007715
391	C	0.437026	0.737858	0.023025
392	H	0.42965	0.755477	0.026343
393	C	0.323763	0.690468	0.352985
394	C	0.359506	0.70764	0.352867
395	C	0.37769	0.689967	0.352996
396	C	0.359118	0.654225	0.352874
397	C	0.323262	0.636042	0.352989
398	C	0.306091	0.654612	0.352871
399	H	0.372125	0.641376	0.352948
400	H	0.280235	0.641606	0.352942
401	H	0.372355	0.733495	0.352942
402	N	0.308715	0.709803	0.353686
403	N	0.412072	0.705016	0.353696
404	N	0.303927	0.601659	0.353696
405	C	0.27793	0.784949	0.68168
406	C	0.288244	0.760677	0.682893
407	C	0.264765	0.725993	0.35614
408	H	0.313416	0.76884	0.678347
409	H	0.296212	0.809656	0.676359
410	C	0.275872	0.701913	0.356352
411	C	0.287739	0.541521	0.356153
412	C	0.297365	0.516442	0.362377
413	C	0.272541	0.981084	0.361073
414	N	0.332141	0.528264	0.370863
415	N	0.281125	0.955569	0.368207
416	O	0.338326	0.52173	0.409604
417	O	0.299983	0.954059	0.338663
418	O	0.346767	0.520726	0.341106
419	O	0.291487	0.955	0.407184
420	C	0.311817	0.576706	0.356365
421	H	0.336811	0.58408	0.359682
422	C	0.483416	0.725484	0.682914
423	C	0.472212	0.748966	0.356143
424	C	0.497288	0.783671	0.362364
425	H	0.466408	0.700314	0.678351
426	N	0.485468	0.806629	0.370823
427	O	0.492005	0.819368	0.409553
428	O	0.493004	0.828778	0.341049
429	C	0.437026	0.737858	0.356359
430	H	0.42965	0.755477	0.359678
431	C	0.323763	0.690468	0.686317
432	C	0.359506	0.70764	0.686203
433	C	0.37769	0.689967	0.686327
434	C	0.359118	0.654225	0.686209
435	C	0.323262	0.636042	0.686324
436	C	0.306091	0.654612	0.686203
437	H	0.372125	0.641376	0.686284
438	H	0.280235	0.641606	0.686273
439	H	0.372355	0.733495	0.686277
440	N	0.308715	0.709803	0.687022
441	N	0.412072	0.705016	0.687032
442	N	0.303927	0.601659	0.687028
443	C	0.27793	0.784949	0.015014
444	C	0.288244	0.760677	0.016226
445	C	0.264765	0.725993	0.689472
446	H	0.313416	0.76884	0.011681
447	H	0.296212	0.809656	0.009692
448	C	0.275872	0.701913	0.689687
449	C	0.287739	0.541521	0.689485
450	C	0.297365	0.516442	0.695709
451	C	0.272541	0.981084	0.694405
452	N	0.332141	0.528264	0.704195
453	N	0.281125	0.955569	0.701543
454	O	0.338326	0.52173	0.742936
455	O	0.299983	0.954059	0.671995
456	O	0.346767	0.520726	0.674442
457	O	0.291487	0.955	0.740516
458	C	0.311817	0.576706	0.689697
459	H	0.336811	0.58408	0.693013
460	C	0.483416	0.725484	0.016245
461	C	0.472212	0.748966	0.689478
462	C	0.497288	0.783671	0.695699
463	H	0.466408	0.700314	0.011685
464	N	0.485468	0.806629	0.704158
465	O	0.492005	0.819368	0.742885
466	O	0.493004	0.828778	0.674381
467	C	0.437026	0.737858	0.689694
468	H	0.42965	0.755477	0.69301
469	C	0.690844	0.318791	0.018366
470	C	0.655192	0.303384	0.018341
471	C	0.638931	0.322886	0.018351
472	C	0.659177	0.358539	0.018334
473	C	0.694938	0.3748	0.018351
474	C	0.710347	0.354554	0.018331
475	H	0.647593	0.372788	0.018729
476	H	0.736177	0.366138	0.018746
477	H	0.640944	0.277553	0.018741
478	N	0.704098	0.297933	0.019071
479	N	0.60482	0.309634	0.019054
480	N	0.715799	0.408912	0.019061
481	C	0.823762	0.190469	0.019651
482	C	0.859505	0.207639	0.019534
483	C	0.877689	0.189967	0.019662
484	C	0.859117	0.154225	0.019541
485	C	0.823261	0.13604	0.019655
486	C	0.80609	0.154612	0.019537
487	H	0.872125	0.141375	0.019616
488	H	0.780234	0.141605	0.019608
489	H	0.872355	0.233496	0.019609
490	N	0.808715	0.209803	0.020353
491	N	0.912071	0.205015	0.020363
492	N	0.803926	0.101658	0.020362
493	C	0.743617	0.276027	0.353535
494	C	0.777928	0.284947	0.348348
495	C	0.788243	0.260675	0.349562
496	C	0.764765	0.225991	0.022804
497	C	0.730061	0.216364	0.029028
498	H	0.813416	0.268841	0.345015
499	H	0.796212	0.309654	0.343027
500	C	0.719525	0.241189	0.027726
501	N	0.707104	0.181587	0.037509
502	N	0.685427	0.232604	0.034862
503	O	0.694385	0.175399	0.076249
504	O	0.66506	0.213749	0.005313
505	O	0.684941	0.166964	0.007753
506	O	0.674492	0.222238	0.073834
507	C	0.735843	0.302559	0.351284
508	H	0.755313	0.326881	0.347529
509	C	0.775872	0.201913	0.023019
510	H	0.758254	0.17692	0.026349
511	C	0.737701	0.470335	0.353538
512	C	0.728781	0.495728	0.348362
513	C	0.753051	0.030314	0.349582
514	C	0.787737	0.041519	0.022818
515	C	0.797365	0.016442	0.029043
516	H	0.744891	0.047322	0.345012
517	H	0.704078	0.489303	0.343014
518	C	0.77254	0.481082	0.027738
519	N	0.83214	0.028263	0.037528
520	N	0.781122	0.455568	0.034875
521	O	0.838326	0.02173	0.076269
522	O	0.799984	0.45406	0.00533
523	O	0.846766	0.020724	0.007774
524	O	0.791486	0.454998	0.073849
525	C	0.711173	0.436033	0.35128
526	H	0.68685	0.43118	0.347526
527	C	0.811817	0.076704	0.023031
528	H	0.836811	0.084079	0.026347
529	C	0.543395	0.270114	0.353531
530	C	0.518003	0.235799	0.348365
531	C	0.983417	0.225484	0.349578
532	C	0.972211	0.248965	0.02281
533	C	0.997288	0.283669	0.029031
534	H	0.966407	0.200314	0.345019
535	H	0.524426	0.217519	0.343024
536	C	0.532649	0.294206	0.027719
537	N	0.985467	0.30663	0.03749
538	N	0.558163	0.328303	0.034868
539	O	0.992004	0.319366	0.076219
540	O	0.559674	0.348678	0.005334
541	O	0.993003	0.328779	0.007715
542	O	0.55873	0.339224	0.073847
543	C	0.577698	0.277887	0.351273
544	H	0.582551	0.258416	0.347536
545	C	0.937026	0.237858	0.023025
546	H	0.92965	0.255478	0.026343
547	C	0.690844	0.318791	0.351698
548	C	0.655192	0.303384	0.351674
549	C	0.638931	0.322886	0.351685
550	C	0.659177	0.358539	0.351668
551	C	0.694938	0.3748	0.351685
552	C	0.710347	0.354554	0.351664
553	H	0.647593	0.372788	0.352062
554	H	0.736177	0.366138	0.352079
555	H	0.640944	0.277553	0.352076
556	N	0.704098	0.297933	0.352406
557	N	0.60482	0.309634	0.352389
558	N	0.715799	0.408912	0.352396
559	C	0.823762	0.190469	0.352985
560	C	0.859505	0.207639	0.352867
561	C	0.877689	0.189967	0.352996
562	C	0.859117	0.154225	0.352874
563	C	0.823261	0.13604	0.352989
564	C	0.80609	0.154612	0.352871
565	H	0.872125	0.141375	0.352948
566	H	0.780234	0.141605	0.352942
567	H	0.872355	0.233496	0.352942
568	N	0.808715	0.209803	0.353686
569	N	0.912071	0.205015	0.353696
570	N	0.803926	0.101658	0.353696
571	C	0.743617	0.276027	0.686867
572	C	0.777928	0.284947	0.68168
573	C	0.788243	0.260675	0.682893
574	C	0.764765	0.225991	0.35614
575	C	0.730061	0.216364	0.362361
576	H	0.813416	0.268841	0.678347
577	H	0.796212	0.309654	0.676359
578	C	0.719525	0.241189	0.36106
579	N	0.707104	0.181587	0.370843
580	N	0.685427	0.232604	0.368197
581	O	0.694385	0.175399	0.409584
582	O	0.66506	0.213749	0.338646
583	O	0.684941	0.166964	0.341086
584	O	0.674492	0.222238	0.407167
585	C	0.735843	0.302559	0.684615
586	H	0.755313	0.326881	0.680861
587	C	0.775872	0.201913	0.356352
588	H	0.758254	0.17692	0.359682
589	C	0.737701	0.470335	0.68687
590	C	0.728781	0.495728	0.681697
591	C	0.753051	0.030314	0.682914
592	C	0.787737	0.041519	0.356153
593	C	0.797365	0.016442	0.362377
594	H	0.744891	0.047322	0.678344
595	H	0.704078	0.489303	0.676349
596	C	0.77254	0.481082	0.361073
597	N	0.83214	0.028263	0.370863
598	N	0.781122	0.455568	0.368207
599	O	0.838326	0.02173	0.409604
600	O	0.799984	0.45406	0.338663
601	O	0.846766	0.020724	0.341106
602	O	0.791486	0.454998	0.407184
603	C	0.711173	0.436033	0.684612
604	H	0.68685	0.43118	0.680858
605	C	0.811817	0.076704	0.356365
606	H	0.836811	0.084079	0.359682
607	C	0.543395	0.270114	0.686863
608	C	0.518003	0.235799	0.681697
609	C	0.983417	0.225484	0.682914
610	C	0.972211	0.248965	0.356143
611	C	0.997288	0.283669	0.362364
612	H	0.966407	0.200314	0.678351
613	H	0.524426	0.217519	0.676356
614	C	0.532649	0.294206	0.361053
615	N	0.985467	0.30663	0.370823
616	N	0.558163	0.328303	0.368201
617	O	0.992004	0.319366	0.409553
618	O	0.559674	0.348678	0.338666
619	O	0.993003	0.328779	0.341049
620	O	0.55873	0.339224	0.407181
621	C	0.577698	0.277887	0.684605
622	H	0.582551	0.258416	0.680868
623	C	0.937026	0.237858	0.356359
624	H	0.92965	0.255478	0.359678
625	C	0.690844	0.318791	0.685033
626	C	0.655192	0.303384	0.68501
627	C	0.638931	0.322886	0.685016
628	C	0.659177	0.358539	0.685
629	C	0.694938	0.3748	0.68502
630	C	0.710347	0.354554	0.685
631	H	0.647593	0.372788	0.685397
632	H	0.736177	0.366138	0.685414
633	H	0.640944	0.277553	0.685407
634	N	0.704098	0.297933	0.685738
635	N	0.60482	0.309634	0.685721
636	N	0.715799	0.408912	0.685728
637	C	0.823762	0.190469	0.686317
638	C	0.859505	0.207639	0.686203
639	C	0.877689	0.189967	0.686327
640	C	0.859117	0.154225	0.686209
641	C	0.823261	0.13604	0.686324
642	C	0.80609	0.154612	0.686203
643	H	0.872125	0.141375	0.686284
644	H	0.780234	0.141605	0.686273
645	H	0.872355	0.233496	0.686277
646	N	0.808715	0.209803	0.687022
647	N	0.912071	0.205015	0.687032
648	N	0.803926	0.101658	0.687028
649	C	0.743617	0.276027	0.0202
650	C	0.777928	0.284947	0.015014
651	C	0.788243	0.260675	0.016226
652	C	0.764765	0.225991	0.689472
653	C	0.730061	0.216364	0.695696
654	H	0.813416	0.268841	0.011681
655	H	0.796212	0.309654	0.009692
656	C	0.719525	0.241189	0.694395
657	N	0.707104	0.181587	0.704175
658	N	0.685427	0.232604	0.701529
659	O	0.694385	0.175399	0.742916
660	O	0.66506	0.213749	0.671978
661	O	0.684941	0.166964	0.674421
662	O	0.674492	0.222238	0.740503
663	C	0.735843	0.302559	0.017948
664	H	0.755313	0.326881	0.014194
665	C	0.775872	0.201913	0.689687
666	H	0.758254	0.17692	0.693017
667	C	0.737701	0.470335	0.020203
668	C	0.728781	0.495728	0.015029
669	C	0.753051	0.030314	0.016247
670	C	0.787737	0.041519	0.689485
671	C	0.797365	0.016442	0.695709
672	H	0.744891	0.047322	0.011678
673	H	0.704078	0.489303	0.009682
674	C	0.77254	0.481082	0.694405
675	N	0.83214	0.028263	0.704195
676	N	0.781122	0.455568	0.701543
677	O	0.838326	0.02173	0.742936
678	O	0.799984	0.45406	0.671995
679	O	0.846766	0.020724	0.674442
680	O	0.791486	0.454998	0.740516
681	C	0.711173	0.436033	0.017945
682	H	0.68685	0.43118	0.014192
683	C	0.811817	0.076704	0.689697
684	H	0.836811	0.084079	0.693013
685	C	0.543395	0.270114	0.020197
686	C	0.518003	0.235799	0.01503
687	C	0.983417	0.225484	0.016245
688	C	0.972211	0.248965	0.689478
689	C	0.997288	0.283669	0.695699
690	H	0.966407	0.200314	0.011685
691	H	0.524426	0.217519	0.00969
692	C	0.532649	0.294206	0.694385
693	N	0.985467	0.30663	0.704158
694	N	0.558163	0.328303	0.701536
695	O	0.992004	0.319366	0.742885
696	O	0.559674	0.348678	0.671998
697	O	0.993003	0.328779	0.674381
698	O	0.55873	0.339224	0.740516
699	C	0.577698	0.277887	0.017938
700	H	0.582551	0.258416	0.014202
701	C	0.937026	0.237858	0.689694
702	H	0.92965	0.255478	0.69301
703	C	0.690846	0.818793	0.018366
704	C	0.65519	0.803383	0.018341
705	C	0.638933	0.822887	0.018351
706	C	0.659176	0.858541	0.018334
707	C	0.69494	0.874801	0.018351
708	C	0.710349	0.854555	0.018331
709	H	0.647594	0.872787	0.018729
710	H	0.736178	0.866137	0.018746
711	H	0.640942	0.777552	0.018741
712	N	0.704096	0.797932	0.019071
713	N	0.60482	0.809636	0.019054
714	N	0.715797	0.908911	0.019061
715	C	0.823763	0.690468	0.019651
716	C	0.859504	0.70764	0.019534
717	C	0.87769	0.689967	0.019662
718	C	0.859118	0.654225	0.019541
719	C	0.823263	0.636042	0.019655
720	C	0.806091	0.654612	0.019537
721	H	0.872124	0.641376	0.019616
722	H	0.780234	0.641606	0.019608
723	H	0.872353	0.733495	0.019609
724	N	0.808714	0.709803	0.020353
725	N	0.912072	0.705016	0.020363
726	N	0.803928	0.601659	0.020362
727	C	0.743617	0.776029	0.353535
728	C	0.77793	0.784949	0.348348
729	C	0.788245	0.760677	0.349562
730	C	0.764765	0.725993	0.022804
731	C	0.73006	0.716365	0.029028
732	H	0.813417	0.76884	0.345015
733	H	0.796211	0.809656	0.343027
734	C	0.719527	0.74119	0.027726
735	N	0.707106	0.681589	0.037509
736	N	0.685427	0.732605	0.034862
737	O	0.694387	0.6754	0.076249
738	O	0.66506	0.713751	0.005313
739	O	0.68494	0.666963	0.007753
740	O	0.674494	0.72224	0.073834
741	C	0.735844	0.802558	0.351284
742	H	0.755313	0.82688	0.347529
743	C	0.775871	0.701913	0.023019
744	H	0.758255	0.676921	0.026349
745	C	0.737703	0.970337	0.353538
746	C	0.728781	0.99573	0.348362
747	C	0.753052	0.530314	0.349582
748	C	0.787737	0.541521	0.022818
749	C	0.797364	0.516442	0.029043
750	H	0.744891	0.547323	0.345012
751	H	0.704078	0.989305	0.343014
752	C	0.772539	0.981084	0.027738
753	N	0.83214	0.528264	0.037528
754	N	0.781124	0.955569	0.034875
755	O	0.838327	0.52173	0.076269
756	O	0.799982	0.954059	0.00533
757	O	0.846767	0.520726	0.007774
758	O	0.791486	0.955	0.073849
759	C	0.711173	0.936035	0.35128
760	H	0.686852	0.931181	0.347526
761	C	0.811816	0.576706	0.023031
762	H	0.83681	0.58408	0.026347
763	C	0.543395	0.770113	0.353531
764	C	0.518003	0.735801	0.348365
765	C	0.983416	0.725484	0.349578
766	C	0.972211	0.748966	0.02281
767	C	0.997288	0.783671	0.029031
768	H	0.966409	0.700314	0.345019
769	H	0.524427	0.717518	0.343024
770	C	0.532648	0.794205	0.027719
771	N	0.985468	0.806629	0.03749
772	N	0.558162	0.828302	0.034868
773	O	0.992004	0.819368	0.076219
774	O	0.559675	0.848677	0.005334
775	O	0.993003	0.828778	0.007715
776	O	0.55873	0.839226	0.073847
777	C	0.577699	0.777889	0.351273
778	H	0.582551	0.758418	0.347536
779	C	0.937024	0.737858	0.023025
780	H	0.929651	0.755477	0.026343
781	C	0.690846	0.818793	0.351698
782	C	0.65519	0.803383	0.351674
783	C	0.638933	0.822887	0.351685
784	C	0.659176	0.858541	0.351668
785	C	0.69494	0.874801	0.351685
786	C	0.710349	0.854555	0.351664
787	H	0.647594	0.872787	0.352062
788	H	0.736178	0.866137	0.352079
789	H	0.640942	0.777552	0.352076
790	N	0.704096	0.797932	0.352406
791	N	0.60482	0.809636	0.352389
792	N	0.715797	0.908911	0.352396
793	C	0.823763	0.690468	0.352985
794	C	0.859504	0.70764	0.352867
795	C	0.87769	0.689967	0.352996
796	C	0.859118	0.654225	0.352874
797	C	0.823263	0.636042	0.352989
798	C	0.806091	0.654612	0.352871
799	H	0.872124	0.641376	0.352948
800	H	0.780234	0.641606	0.352942
801	H	0.872353	0.733495	0.352942
802	N	0.808714	0.709803	0.353686
803	N	0.912072	0.705016	0.353696
804	N	0.803928	0.601659	0.353696
805	C	0.743617	0.776029	0.686867
806	C	0.77793	0.784949	0.68168
807	C	0.788245	0.760677	0.682893
808	C	0.764765	0.725993	0.35614
809	C	0.73006	0.716365	0.362361
810	H	0.813417	0.76884	0.678347
811	H	0.796211	0.809656	0.676359
812	C	0.719527	0.74119	0.36106
813	N	0.707106	0.681589	0.370843
814	N	0.685427	0.732605	0.368197
815	O	0.694387	0.6754	0.409584
816	O	0.66506	0.713751	0.338646
817	O	0.68494	0.666963	0.341086
818	O	0.674494	0.72224	0.407167
819	C	0.735844	0.802558	0.684615
820	H	0.755313	0.82688	0.680861
821	C	0.775871	0.701913	0.356352
822	H	0.758255	0.676921	0.359682
823	C	0.737703	0.970337	0.68687
824	C	0.728781	0.99573	0.681697
825	C	0.753052	0.530314	0.682914
826	C	0.787737	0.541521	0.356153
827	C	0.797364	0.516442	0.362377
828	H	0.744891	0.547323	0.678344
829	H	0.704078	0.989305	0.676349
830	C	0.772539	0.981084	0.361073
831	N	0.83214	0.528264	0.370863
832	N	0.781124	0.955569	0.368207
833	O	0.838327	0.52173	0.409604
834	O	0.799982	0.954059	0.338663
835	O	0.846767	0.520726	0.341106
836	O	0.791486	0.955	0.407184
837	C	0.711173	0.936035	0.684612
838	H	0.686852	0.931181	0.680858
839	C	0.811816	0.576706	0.356365
840	H	0.83681	0.58408	0.359682
841	C	0.543395	0.770113	0.686863
842	C	0.518003	0.735801	0.681697
843	C	0.983416	0.725484	0.682914
844	C	0.972211	0.748966	0.356143
845	C	0.997288	0.783671	0.362364
846	H	0.966409	0.700314	0.678351
847	H	0.524427	0.717518	0.676356
848	C	0.532648	0.794205	0.361053
849	N	0.985468	0.806629	0.370823
850	N	0.558162	0.828302	0.368201
851	O	0.992004	0.819368	0.409553
852	O	0.559675	0.848677	0.338666
853	O	0.993003	0.828778	0.341049
854	O	0.55873	0.839226	0.407181
855	C	0.577699	0.777889	0.684605
856	H	0.582551	0.758418	0.680868
857	C	0.937024	0.737858	0.356359
858	H	0.929651	0.755477	0.359678
859	C	0.690846	0.818793	0.685033
860	C	0.65519	0.803383	0.68501
861	C	0.638933	0.822887	0.685016
862	C	0.659176	0.858541	0.685
863	C	0.69494	0.874801	0.68502
864	C	0.710349	0.854555	0.685
865	H	0.647594	0.872787	0.685397
866	H	0.736178	0.866137	0.685414
867	H	0.640942	0.777552	0.685407
868	N	0.704096	0.797932	0.685738
869	N	0.60482	0.809636	0.685721
870	N	0.715797	0.908911	0.685728
871	C	0.823763	0.690468	0.686317
872	C	0.859504	0.70764	0.686203
873	C	0.87769	0.689967	0.686327
874	C	0.859118	0.654225	0.686209
875	C	0.823263	0.636042	0.686324
876	C	0.806091	0.654612	0.686203
877	H	0.872124	0.641376	0.686284
878	H	0.780234	0.641606	0.686273
879	H	0.872353	0.733495	0.686277
880	N	0.808714	0.709803	0.687022
881	N	0.912072	0.705016	0.687032
882	N	0.803928	0.601659	0.687028
883	C	0.743617	0.776029	0.0202
884	C	0.77793	0.784949	0.015014
885	C	0.788245	0.760677	0.016226
886	C	0.764765	0.725993	0.689472
887	C	0.73006	0.716365	0.695696
888	H	0.813417	0.76884	0.011681
889	H	0.796211	0.809656	0.009692
890	C	0.719527	0.74119	0.694395
891	N	0.707106	0.681589	0.704175
892	N	0.685427	0.732605	0.701529
893	O	0.694387	0.6754	0.742916
894	O	0.66506	0.713751	0.671978
895	O	0.68494	0.666963	0.674421
896	O	0.674494	0.72224	0.740503
897	C	0.735844	0.802558	0.017948
898	H	0.755313	0.82688	0.014194
899	C	0.775871	0.701913	0.689687
900	H	0.758255	0.676921	0.693017
901	C	0.737703	0.970337	0.020203
902	C	0.728781	0.99573	0.015029
903	C	0.753052	0.530314	0.016247
904	C	0.787737	0.541521	0.689485
905	C	0.797364	0.516442	0.695709
906	H	0.744891	0.547323	0.011678
907	H	0.704078	0.989305	0.009682
908	C	0.772539	0.981084	0.694405
909	N	0.83214	0.528264	0.704195
910	N	0.781124	0.955569	0.701543
911	O	0.838327	0.52173	0.742936
912	O	0.799982	0.954059	0.671995
913	O	0.846767	0.520726	0.674442
914	O	0.791486	0.955	0.740516
915	C	0.711173	0.936035	0.017945
916	H	0.686852	0.931181	0.014192
917	C	0.811816	0.576706	0.689697
918	H	0.83681	0.58408	0.693013
919	C	0.543395	0.770113	0.020197
920	C	0.518003	0.735801	0.01503
921	C	0.983416	0.725484	0.016245
922	C	0.972211	0.748966	0.689478
923	C	0.997288	0.783671	0.695699
924	H	0.966409	0.700314	0.011685
925	H	0.524427	0.717518	0.00969
926	C	0.532648	0.794205	0.694385
927	N	0.985468	0.806629	0.704158
928	N	0.558162	0.828302	0.701536
929	O	0.992004	0.819368	0.742885
930	O	0.559675	0.848677	0.671998
931	O	0.993003	0.828778	0.674381
932	O	0.55873	0.839226	0.740516
933	C	0.577699	0.777889	0.017938
934	H	0.582551	0.758418	0.014202
935	C	0.937024	0.737858	0.689694
936	H	0.929651	0.755477	0.69301
