data_C504H360N144_2018-02-15_10:37:01
#******************************************
#
# CIF file created by Zeo++
# Zeo++ is an open source package to
# analyze microporous materials
#
#*******************************************

_cell_length_a		44.3101   
_cell_length_b		44.31   
_cell_length_c		29.8244   
_cell_angle_alpha		90   
_cell_angle_beta		90   
_cell_angle_gamma		120   

_symmetry_space_group_name_H-M		'P1'
_symmetry_Int_Tables_number		1
_symmetry_cell_setting		Monoclinic

loop_
_symmetry_equiv_pos_as_xyz
'+x,+y,+z'

loop_
_atom_site_label
_atom_site_type_symbol
_atom_site_fract_x
_atom_site_fract_y
_atom_site_fract_z
1	N	0.043073	0.250495	0.014355
2	C	0.023136	0.264119	0.333784
3	C	0.042024	0.299104	0.316725
4	C	0.025382	0.318513	0.298172
5	H	0.04414	0.344755	0.286833
6	H	0.009284	0.321169	0.323814
7	N	0.043073	0.250495	0.347689
8	C	0.023136	0.264119	0.667115
9	C	0.042024	0.299104	0.650059
10	C	0.025382	0.318513	0.631503
11	H	0.04414	0.344755	0.620167
12	H	0.009284	0.321169	0.657147
13	N	0.043073	0.250495	0.68102
14	C	0.023136	0.264119	0.00045
15	C	0.042024	0.299104	0.98339
16	C	0.025382	0.318513	0.964838
17	H	0.04414	0.344755	0.953498
18	H	0.009284	0.321169	0.990482
19	N	0.043073	0.750498	0.01436
20	C	0.023136	0.764119	0.333785
21	C	0.042023	0.799104	0.316723
22	C	0.025382	0.81851	0.298164
23	H	0.044141	0.844752	0.286821
24	H	0.009284	0.821169	0.323805
25	N	0.043073	0.750498	0.347692
26	C	0.023136	0.764119	0.667119
27	C	0.042023	0.799104	0.650055
28	C	0.025382	0.81851	0.631497
29	H	0.044141	0.844752	0.620154
30	H	0.009284	0.821169	0.657137
31	N	0.043073	0.750498	0.681027
32	C	0.023136	0.764119	0.00045
33	C	0.042023	0.799104	0.98339
34	C	0.025382	0.81851	0.964831
35	H	0.044141	0.844752	0.953488
36	H	0.009284	0.821169	0.990471
37	H	0.009331	0.304603	0.26925
38	H	0.009331	0.304603	0.602584
39	H	0.009331	0.304603	0.935915
40	H	0.009329	0.804597	0.269245
41	H	0.009329	0.804597	0.602577
42	H	0.009329	0.804597	0.935912
43	C	0.098051	0.300988	0.33242
44	C	0.078245	0.266371	0.014209
45	C	0.079063	0.316783	0.317064
46	H	0.092699	0.341709	0.304955
47	H	0.089755	0.252973	0.026252
48	C	0.098051	0.300988	0.665754
49	C	0.078245	0.266371	0.347541
50	C	0.079063	0.316783	0.650397
51	H	0.092699	0.341709	0.63829
52	H	0.089755	0.252973	0.359585
53	C	0.098051	0.300988	0.999085
54	C	0.078245	0.266371	0.680876
55	C	0.079063	0.316783	0.983732
56	H	0.092699	0.341709	0.971621
57	H	0.089755	0.252973	0.69292
58	C	0.098053	0.800991	0.332421
59	C	0.078245	0.76637	0.014214
60	C	0.079064	0.816783	0.317062
61	H	0.0927	0.841709	0.30495
62	H	0.089756	0.752976	0.02626
63	C	0.098053	0.800991	0.665754
64	C	0.078245	0.76637	0.347548
65	C	0.079064	0.816783	0.650394
66	H	0.0927	0.841709	0.638283
67	H	0.089756	0.752976	0.359592
68	C	0.098053	0.800991	0.999089
69	C	0.078245	0.76637	0.680879
70	C	0.079064	0.816783	0.983729
71	H	0.0927	0.841709	0.971618
72	H	0.089756	0.752976	0.692926
73	C	0.189616	0.372188	0.999105
74	N	0.154156	0.354356	0.999125
75	C	0.135175	0.318925	0.999132
76	N	0.153005	0.301296	0.999159
77	C	0.188437	0.317744	0.999139
78	N	0.206064	0.353204	0.999136
79	C	0.319213	0.133752	0.004906
80	N	0.354673	0.151523	0.004905
81	C	0.373604	0.186953	0.004934
82	N	0.355831	0.20464	0.004942
83	C	0.3204	0.18814	0.004941
84	N	0.302713	0.15268	0.004917
85	C	0.206372	0.298557	0.332423
86	C	0.241014	0.313387	0.014125
87	N	0.256889	0.29409	0.014276
88	C	0.243239	0.260506	0.333789
89	C	0.208229	0.244387	0.31681
90	C	0.190554	0.263752	0.317146
91	H	0.16561	0.252444	0.305095
92	C	0.265431	0.245129	0.004032
93	C	0.299527	0.260397	0.023788
94	C	0.317389	0.241213	0.023131
95	C	0.302481	0.207299	0.004975
96	C	0.268749	0.193271	0.320328
97	N	0.252783	0.212479	0.320474
98	H	0.341651	0.251843	0.037243
99	H	0.256127	0.169054	0.306088
100	H	0.254432	0.338313	0.026104
101	C	0.317623	0.295224	0.045943
102	H	0.30154	0.295927	0.073199
103	H	0.322564	0.315535	0.021532
104	H	0.342733	0.301632	0.06049
105	C	0.188788	0.208305	0.298358
106	H	0.202635	0.206124	0.269393
107	H	0.162518	0.200794	0.287112
108	H	0.186199	0.189596	0.324028
109	C	0.208806	0.409315	0.332372
110	C	0.193946	0.429131	0.013958
111	N	0.213246	0.464301	0.014116
112	C	0.246861	0.484231	0.333744
113	C	0.26301	0.465338	0.316875
114	C	0.243641	0.4283	0.317203
115	H	0.254971	0.41466	0.305235
116	C	0.262239	0.021799	0.003985
117	C	0.247004	0.040621	0.023848
118	C	0.266179	0.077667	0.023184
119	C	0.300057	0.096676	0.004922
120	C	0.314051	0.076978	0.32016
121	N	0.294851	0.041803	0.320311
122	H	0.255575	0.091296	0.037378
123	H	0.338239	0.08858	0.305838
124	H	0.168996	0.417626	0.025852
125	C	0.212229	0.023882	0.04614
126	H	0.21158	0.50707	0.073323
127	H	0.191858	0.008539	0.021785
128	H	0.205866	0.042579	0.060811
129	C	0.299134	0.481977	0.298567
130	H	0.301375	0.997978	0.269546
131	H	0.306684	0.463219	0.287452
132	H	0.317781	0.498129	0.324278
133	C	0.485564	0.241923	0.004028
134	C	0.466733	0.207799	0.023707
135	C	0.429688	0.189939	0.023052
136	C	0.410682	0.204874	0.004971
137	C	0.430388	0.238635	0.32041
138	N	0.465563	0.254599	0.320552
139	H	0.416057	0.165657	0.037107
140	H	0.418796	0.25128	0.306232
141	C	0.483461	0.189663	0.045768
142	H	0.000224	0.205689	0.073076
143	H	0.498852	0.184785	0.021322
144	H	0.464757	0.164519	0.060229
145	H	0.50933	0.304603	0.26925
146	C	0.189616	0.372188	0.33244
147	N	0.154156	0.354356	0.332458
148	C	0.135175	0.318925	0.332467
149	N	0.153005	0.301296	0.332493
150	C	0.188437	0.317744	0.332474
151	N	0.206064	0.353204	0.332469
152	C	0.319213	0.133752	0.33824
153	N	0.354673	0.151523	0.33824
154	C	0.373604	0.186953	0.338267
155	N	0.355831	0.20464	0.338277
156	C	0.3204	0.18814	0.338274
157	N	0.302713	0.15268	0.33825
158	C	0.206372	0.298557	0.665757
159	C	0.241014	0.313387	0.347457
160	N	0.256889	0.29409	0.347608
161	C	0.243239	0.260506	0.667122
162	C	0.208229	0.244387	0.650143
163	C	0.190554	0.263752	0.650478
164	H	0.16561	0.252444	0.638427
165	C	0.265431	0.245129	0.337365
166	C	0.299527	0.260397	0.357121
167	C	0.317389	0.241213	0.356463
168	C	0.302481	0.207299	0.338307
169	C	0.268749	0.193271	0.65366
170	N	0.252783	0.212479	0.653807
171	H	0.341651	0.251843	0.370576
172	H	0.256127	0.169054	0.639423
173	H	0.254432	0.338313	0.359437
174	C	0.317623	0.295224	0.379277
175	H	0.30154	0.295927	0.406533
176	H	0.322564	0.315535	0.354864
177	H	0.342733	0.301632	0.393822
178	C	0.188788	0.208305	0.631691
179	H	0.202635	0.206124	0.602725
180	H	0.162518	0.200794	0.620445
181	H	0.186199	0.189596	0.657361
182	C	0.208806	0.409315	0.665707
183	C	0.193946	0.429131	0.34729
184	N	0.213246	0.464301	0.347451
185	C	0.246861	0.484231	0.667078
186	C	0.26301	0.465338	0.65021
187	C	0.243641	0.4283	0.650535
188	H	0.254971	0.41466	0.638568
189	C	0.262239	0.021799	0.337318
190	C	0.247004	0.040621	0.357181
191	C	0.266179	0.077667	0.356517
192	C	0.300057	0.096676	0.338253
193	C	0.314051	0.076978	0.653492
194	N	0.294851	0.041803	0.653643
195	H	0.255575	0.091296	0.37071
196	H	0.338239	0.08858	0.639172
197	H	0.168996	0.417626	0.359186
198	C	0.212229	0.023882	0.379475
199	H	0.21158	0.50707	0.406657
200	H	0.191858	0.008539	0.355119
201	H	0.205866	0.042579	0.394144
202	C	0.299134	0.481977	0.631899
203	H	0.301375	0.997978	0.602879
204	H	0.306684	0.463219	0.620784
205	H	0.317781	0.498129	0.657613
206	C	0.485564	0.241923	0.337362
207	C	0.466733	0.207799	0.35704
208	C	0.429688	0.189939	0.356386
209	C	0.410682	0.204874	0.338304
210	C	0.430388	0.238635	0.653744
211	N	0.465563	0.254599	0.653884
212	H	0.416057	0.165657	0.370442
213	H	0.418796	0.25128	0.639564
214	C	0.483461	0.189663	0.379103
215	H	0.000224	0.205689	0.406409
216	H	0.498852	0.184785	0.354656
217	H	0.464757	0.164519	0.393564
218	H	0.50933	0.304603	0.602584
219	C	0.189616	0.372188	0.665774
220	N	0.154156	0.354356	0.665791
221	C	0.135175	0.318925	0.665801
222	N	0.153005	0.301296	0.665828
223	C	0.188437	0.317744	0.665808
224	N	0.206064	0.353204	0.665801
225	C	0.319213	0.133752	0.671571
226	N	0.354673	0.151523	0.671571
227	C	0.373604	0.186953	0.671598
228	N	0.355831	0.20464	0.671608
229	C	0.3204	0.18814	0.671608
230	N	0.302713	0.15268	0.671585
231	C	0.206372	0.298557	0.999089
232	C	0.241014	0.313387	0.680792
233	N	0.256889	0.29409	0.680943
234	C	0.243239	0.260506	0.000457
235	C	0.208229	0.244387	0.983477
236	C	0.190554	0.263752	0.983813
237	H	0.16561	0.252444	0.971762
238	C	0.265431	0.245129	0.6707
239	C	0.299527	0.260397	0.690455
240	C	0.317389	0.241213	0.689798
241	C	0.302481	0.207299	0.671642
242	C	0.268749	0.193271	0.986994
243	N	0.252783	0.212479	0.987139
244	H	0.341651	0.251843	0.703911
245	H	0.256127	0.169054	0.972754
246	H	0.254432	0.338313	0.692772
247	C	0.317623	0.295224	0.712608
248	H	0.30154	0.295927	0.739864
249	H	0.322564	0.315535	0.688199
250	H	0.342733	0.301632	0.727157
251	C	0.188788	0.208305	0.965023
252	H	0.202635	0.206124	0.93606
253	H	0.162518	0.200794	0.953777
254	H	0.186199	0.189596	0.990693
255	C	0.208806	0.409315	0.999038
256	C	0.193946	0.429131	0.680624
257	N	0.213246	0.464301	0.680782
258	C	0.246861	0.484231	0.00041
259	C	0.26301	0.465338	0.983541
260	C	0.243641	0.4283	0.98387
261	H	0.254971	0.41466	0.971903
262	C	0.262239	0.021799	0.670653
263	C	0.247004	0.040621	0.690516
264	C	0.266179	0.077667	0.689852
265	C	0.300057	0.096676	0.671588
266	C	0.314051	0.076978	0.986827
267	N	0.294851	0.041803	0.986978
268	H	0.255575	0.091296	0.704045
269	H	0.338239	0.08858	0.972503
270	H	0.168996	0.417626	0.692517
271	C	0.212229	0.023882	0.712806
272	H	0.21158	0.50707	0.739989
273	H	0.191858	0.008539	0.68845
274	H	0.205866	0.042579	0.727475
275	C	0.299134	0.481977	0.965234
276	H	0.301375	0.997978	0.936214
277	H	0.306684	0.463219	0.954119
278	H	0.317781	0.498129	0.990944
279	C	0.485564	0.241923	0.670693
280	C	0.466733	0.207799	0.690375
281	C	0.429688	0.189939	0.689718
282	C	0.410682	0.204874	0.671638
283	C	0.430388	0.238635	0.987075
284	N	0.465563	0.254599	0.987219
285	H	0.416057	0.165657	0.703773
286	H	0.418796	0.25128	0.972899
287	C	0.483461	0.189663	0.712434
288	H	0.000224	0.205689	0.739744
289	H	0.498852	0.184785	0.687987
290	H	0.464757	0.164519	0.726895
291	H	0.50933	0.304603	0.935915
292	C	0.189618	0.872191	0.999105
293	N	0.154155	0.854355	0.999125
294	C	0.135174	0.818925	0.999136
295	N	0.153004	0.801296	0.999159
296	C	0.188436	0.817744	0.999139
297	N	0.206064	0.853204	0.999136
298	C	0.319214	0.633753	0.004906
299	N	0.354673	0.651523	0.004906
300	C	0.373603	0.686954	0.004935
301	N	0.35583	0.704641	0.004943
302	C	0.320399	0.68814	0.004942
303	N	0.302711	0.65268	0.004918
304	C	0.206372	0.798557	0.332423
305	C	0.241015	0.81339	0.014124
306	N	0.256888	0.79409	0.014275
307	C	0.243239	0.760507	0.333789
308	C	0.208228	0.744387	0.316812
309	C	0.190553	0.763751	0.317147
310	H	0.165609	0.752444	0.305098
311	C	0.26543	0.745129	0.004032
312	C	0.299527	0.760398	0.02379
313	C	0.317388	0.741213	0.023132
314	C	0.30248	0.707299	0.004975
315	C	0.268748	0.693271	0.320327
316	N	0.252783	0.712479	0.320472
317	H	0.34165	0.751842	0.037246
318	H	0.256129	0.669056	0.306086
319	H	0.254433	0.838316	0.026101
320	C	0.317622	0.795224	0.045946
321	H	0.301537	0.795925	0.073202
322	H	0.322563	0.815534	0.021536
323	H	0.342731	0.801632	0.060495
324	C	0.188786	0.708305	0.298361
325	H	0.202633	0.706123	0.269396
326	H	0.162517	0.700794	0.287117
327	H	0.186199	0.689596	0.324032
328	C	0.208805	0.909315	0.332372
329	C	0.193947	0.929131	0.013956
330	N	0.213246	0.964303	0.014114
331	C	0.246861	0.984231	0.333744
332	C	0.26301	0.965338	0.316876
333	C	0.24364	0.928299	0.317203
334	H	0.254972	0.914662	0.305237
335	C	0.262238	0.521799	0.003986
336	C	0.247003	0.540622	0.023848
337	C	0.266178	0.577668	0.023183
338	C	0.300056	0.596676	0.004922
339	C	0.314051	0.576977	0.320162
340	N	0.29485	0.541805	0.320313
341	H	0.255574	0.591297	0.037376
342	H	0.338241	0.588582	0.305841
343	H	0.168995	0.917625	0.025849
344	C	0.212228	0.523883	0.046138
345	H	0.211582	0.007068	0.073325
346	H	0.191858	0.50854	0.021782
347	H	0.205863	0.542579	0.060807
348	C	0.299136	0.98198	0.29857
349	H	0.301374	0.497978	0.269545
350	H	0.306685	0.963219	0.287455
351	H	0.31778	0.998129	0.324281
352	C	0.485565	0.741924	0.004029
353	C	0.466733	0.707796	0.023705
354	C	0.429687	0.689938	0.02305
355	C	0.410683	0.704875	0.004972
356	C	0.430389	0.738635	0.320415
357	N	0.465563	0.754602	0.320557
358	H	0.416056	0.665655	0.037103
359	H	0.418795	0.751282	0.30624
360	C	0.483461	0.689661	0.045762
361	H	0.000224	0.705683	0.073071
362	H	0.498855	0.684786	0.021313
363	H	0.464757	0.664514	0.060218
364	H	0.509329	0.804597	0.269245
365	C	0.189618	0.872191	0.332439
366	N	0.154155	0.854355	0.332458
367	C	0.135174	0.818925	0.332468
368	N	0.153004	0.801296	0.332494
369	C	0.188436	0.817744	0.332474
370	N	0.206064	0.853204	0.332469
371	C	0.319214	0.633753	0.33824
372	N	0.354673	0.651523	0.33824
373	C	0.373603	0.686954	0.338267
374	N	0.35583	0.704641	0.338277
375	C	0.320399	0.68814	0.338274
376	N	0.302711	0.65268	0.33825
377	C	0.206372	0.798557	0.665757
378	C	0.241015	0.81339	0.347457
379	N	0.256888	0.79409	0.347608
380	C	0.243239	0.760507	0.667122
381	C	0.208228	0.744387	0.650146
382	C	0.190553	0.763751	0.650481
383	H	0.165609	0.752444	0.638431
384	C	0.26543	0.745129	0.337365
385	C	0.299527	0.760398	0.357124
386	C	0.317388	0.741213	0.356467
387	C	0.30248	0.707299	0.338307
388	C	0.268748	0.693271	0.65366
389	N	0.252783	0.712479	0.653804
390	H	0.34165	0.751842	0.370579
391	H	0.256129	0.669056	0.63942
392	H	0.254433	0.838316	0.359434
393	C	0.317622	0.795224	0.37928
394	H	0.301537	0.795925	0.406533
395	H	0.322563	0.815534	0.354871
396	H	0.342731	0.801632	0.393829
397	C	0.188786	0.708305	0.631695
398	H	0.202633	0.706123	0.602728
399	H	0.162517	0.700794	0.620449
400	H	0.186199	0.689596	0.657365
401	C	0.208805	0.909315	0.665704
402	C	0.193947	0.929131	0.34729
403	N	0.213246	0.964303	0.347447
404	C	0.246861	0.984231	0.667078
405	C	0.26301	0.965338	0.65021
406	C	0.24364	0.928299	0.650535
407	H	0.254972	0.914662	0.638571
408	C	0.262238	0.521799	0.337318
409	C	0.247003	0.540622	0.357181
410	C	0.266178	0.577668	0.356517
411	C	0.300056	0.596676	0.338257
412	C	0.314051	0.576977	0.653496
413	N	0.29485	0.541805	0.653646
414	H	0.255574	0.591297	0.37071
415	H	0.338241	0.588582	0.639175
416	H	0.168995	0.917625	0.359183
417	C	0.212228	0.523883	0.379471
418	H	0.211582	0.007068	0.406657
419	H	0.191858	0.50854	0.355115
420	H	0.205863	0.542579	0.394141
421	C	0.299136	0.98198	0.631902
422	H	0.301374	0.497978	0.602879
423	H	0.306685	0.963219	0.620787
424	H	0.31778	0.998129	0.657613
425	C	0.485565	0.741924	0.337362
426	C	0.466733	0.707796	0.357037
427	C	0.429687	0.689938	0.356383
428	C	0.410683	0.704875	0.338307
429	C	0.430389	0.738635	0.653747
430	N	0.465563	0.754602	0.653891
431	H	0.416056	0.665655	0.370435
432	H	0.418795	0.751282	0.639574
433	C	0.483461	0.689661	0.379096
434	H	0.000224	0.705683	0.406406
435	H	0.498855	0.684786	0.354646
436	H	0.464757	0.664514	0.39355
437	H	0.509329	0.804597	0.602577
438	C	0.189618	0.872191	0.665774
439	N	0.154155	0.854355	0.665791
440	C	0.135174	0.818925	0.665801
441	N	0.153004	0.801296	0.665828
442	C	0.188436	0.817744	0.665808
443	N	0.206064	0.853204	0.665801
444	C	0.319214	0.633753	0.671571
445	N	0.354673	0.651523	0.671571
446	C	0.373603	0.686954	0.671602
447	N	0.35583	0.704641	0.671608
448	C	0.320399	0.68814	0.671608
449	N	0.302711	0.65268	0.671585
450	C	0.206372	0.798557	0.999089
451	C	0.241015	0.81339	0.680789
452	N	0.256888	0.79409	0.680943
453	C	0.243239	0.760507	0.000457
454	C	0.208228	0.744387	0.983477
455	C	0.190553	0.763751	0.983813
456	H	0.165609	0.752444	0.971765
457	C	0.26543	0.745129	0.6707
458	C	0.299527	0.760398	0.690455
459	C	0.317388	0.741213	0.689798
460	C	0.30248	0.707299	0.671642
461	C	0.268748	0.693271	0.986994
462	N	0.252783	0.712479	0.987139
463	H	0.34165	0.751842	0.703911
464	H	0.256129	0.669056	0.972751
465	H	0.254433	0.838316	0.692769
466	C	0.317622	0.795224	0.712612
467	H	0.301537	0.795925	0.739868
468	H	0.322563	0.815534	0.688202
469	H	0.342731	0.801632	0.72716
470	C	0.188786	0.708305	0.965026
471	H	0.202633	0.706123	0.936063
472	H	0.162517	0.700794	0.953783
473	H	0.186199	0.689596	0.990699
474	C	0.208805	0.909315	0.999038
475	C	0.193947	0.929131	0.680621
476	N	0.213246	0.964303	0.680782
477	C	0.246861	0.984231	0.00041
478	C	0.26301	0.965338	0.983541
479	C	0.24364	0.928299	0.98387
480	H	0.254972	0.914662	0.971903
481	C	0.262238	0.521799	0.670653
482	C	0.247003	0.540622	0.690512
483	C	0.266178	0.577668	0.689848
484	C	0.300056	0.596676	0.671588
485	C	0.314051	0.576977	0.986827
486	N	0.29485	0.541805	0.986981
487	H	0.255574	0.591297	0.704041
488	H	0.338241	0.588582	0.972506
489	H	0.168995	0.917625	0.692514
490	C	0.212228	0.523883	0.712803
491	H	0.211582	0.007068	0.739992
492	H	0.191858	0.50854	0.688447
493	H	0.205863	0.542579	0.727472
494	C	0.299136	0.98198	0.965237
495	H	0.301374	0.497978	0.936211
496	H	0.306685	0.963219	0.954122
497	H	0.31778	0.998129	0.990948
498	C	0.485565	0.741924	0.670696
499	C	0.466733	0.707796	0.690371
500	C	0.429687	0.689938	0.689718
501	C	0.410683	0.704875	0.671638
502	C	0.430389	0.738635	0.987082
503	N	0.465563	0.754602	0.987222
504	H	0.416056	0.665655	0.70377
505	H	0.418795	0.751282	0.972905
506	C	0.483461	0.689661	0.712427
507	H	0.000224	0.705683	0.739737
508	H	0.498855	0.684786	0.687981
509	H	0.464757	0.664514	0.726885
510	H	0.509329	0.804597	0.935912
511	C	0.689615	0.372188	0.999105
512	N	0.654157	0.354356	0.999125
513	C	0.635175	0.318925	0.999132
514	N	0.653005	0.301296	0.999159
515	C	0.688437	0.317744	0.999139
516	N	0.706063	0.353204	0.999136
517	C	0.819212	0.133752	0.004906
518	N	0.854672	0.151523	0.004905
519	C	0.873603	0.186953	0.004934
520	N	0.855829	0.20464	0.004942
521	C	0.820401	0.18814	0.004941
522	N	0.802711	0.15268	0.004917
523	C	0.706372	0.298557	0.332423
524	C	0.741014	0.313387	0.014125
525	N	0.756888	0.29409	0.014276
526	C	0.743237	0.260506	0.333789
527	C	0.708229	0.244387	0.31681
528	C	0.690554	0.263752	0.317146
529	H	0.665609	0.252444	0.305095
530	C	0.765431	0.245129	0.004032
531	C	0.799526	0.260397	0.023788
532	C	0.817389	0.241213	0.023131
533	C	0.802481	0.207299	0.004975
534	C	0.768748	0.193271	0.320328
535	N	0.752782	0.212479	0.320474
536	H	0.84165	0.251843	0.037243
537	H	0.756127	0.169054	0.306088
538	H	0.754431	0.338313	0.026104
539	C	0.817624	0.295224	0.045943
540	H	0.801539	0.295927	0.073199
541	H	0.822563	0.315535	0.021532
542	H	0.842732	0.301632	0.06049
543	C	0.688786	0.208305	0.298358
544	H	0.702634	0.206124	0.269393
545	H	0.662517	0.200794	0.287112
546	H	0.686198	0.189596	0.324028
547	C	0.708806	0.409315	0.332372
548	C	0.693946	0.429131	0.013958
549	N	0.713246	0.464301	0.014116
550	C	0.74686	0.484231	0.333744
551	C	0.763008	0.465338	0.316875
552	C	0.74364	0.4283	0.317203
553	H	0.75497	0.41466	0.305235
554	C	0.762238	0.021799	0.003985
555	C	0.747003	0.040621	0.023848
556	C	0.766178	0.077667	0.023184
557	C	0.800056	0.096676	0.004922
558	C	0.81405	0.076978	0.32016
559	N	0.794849	0.041803	0.320311
560	H	0.755574	0.091296	0.037378
561	H	0.83824	0.08858	0.305838
562	H	0.668996	0.417626	0.025852
563	C	0.712228	0.023882	0.04614
564	H	0.711579	0.50707	0.073323
565	H	0.691858	0.008539	0.021785
566	H	0.705865	0.042579	0.060811
567	C	0.799134	0.481977	0.298567
568	H	0.801375	0.997978	0.269546
569	H	0.806683	0.463219	0.287452
570	H	0.817781	0.498129	0.324278
571	C	0.598051	0.300988	0.33242
572	C	0.578244	0.266371	0.014209
573	N	0.543073	0.250495	0.014355
574	C	0.523135	0.264119	0.333784
575	C	0.542022	0.299104	0.316725
576	C	0.579063	0.316783	0.317064
577	H	0.592699	0.341709	0.304955
578	C	0.985563	0.241923	0.004028
579	C	0.966734	0.207799	0.023707
580	C	0.929686	0.189939	0.023052
581	C	0.910681	0.204874	0.004971
582	C	0.93039	0.238635	0.32041
583	N	0.965562	0.254599	0.320552
584	H	0.916056	0.165657	0.037107
585	H	0.918795	0.25128	0.306232
586	H	0.589755	0.252973	0.026252
587	C	0.983462	0.189663	0.045768
588	H	0.500225	0.205689	0.073076
589	H	0.998854	0.184785	0.021322
590	H	0.964758	0.164519	0.060229
591	C	0.52538	0.318513	0.298172
592	H	0.544139	0.344755	0.286833
593	H	0.509283	0.321169	0.323814
594	C	0.689615	0.372188	0.33244
595	N	0.654157	0.354356	0.332458
596	C	0.635175	0.318925	0.332467
597	N	0.653005	0.301296	0.332493
598	C	0.688437	0.317744	0.332474
599	N	0.706063	0.353204	0.332469
600	C	0.819212	0.133752	0.33824
601	N	0.854672	0.151523	0.33824
602	C	0.873603	0.186953	0.338267
603	N	0.855829	0.20464	0.338277
604	C	0.820401	0.18814	0.338274
605	N	0.802711	0.15268	0.33825
606	C	0.706372	0.298557	0.665757
607	C	0.741014	0.313387	0.347457
608	N	0.756888	0.29409	0.347608
609	C	0.743237	0.260506	0.667122
610	C	0.708229	0.244387	0.650143
611	C	0.690554	0.263752	0.650478
612	H	0.665609	0.252444	0.638427
613	C	0.765431	0.245129	0.337365
614	C	0.799526	0.260397	0.357121
615	C	0.817389	0.241213	0.356463
616	C	0.802481	0.207299	0.338307
617	C	0.768748	0.193271	0.65366
618	N	0.752782	0.212479	0.653807
619	H	0.84165	0.251843	0.370576
620	H	0.756127	0.169054	0.639423
621	H	0.754431	0.338313	0.359437
622	C	0.817624	0.295224	0.379277
623	H	0.801539	0.295927	0.406533
624	H	0.822563	0.315535	0.354864
625	H	0.842732	0.301632	0.393822
626	C	0.688786	0.208305	0.631691
627	H	0.702634	0.206124	0.602725
628	H	0.662517	0.200794	0.620445
629	H	0.686198	0.189596	0.657361
630	C	0.708806	0.409315	0.665707
631	C	0.693946	0.429131	0.34729
632	N	0.713246	0.464301	0.347451
633	C	0.74686	0.484231	0.667078
634	C	0.763008	0.465338	0.65021
635	C	0.74364	0.4283	0.650535
636	H	0.75497	0.41466	0.638568
637	C	0.762238	0.021799	0.337318
638	C	0.747003	0.040621	0.357181
639	C	0.766178	0.077667	0.356517
640	C	0.800056	0.096676	0.338253
641	C	0.81405	0.076978	0.653492
642	N	0.794849	0.041803	0.653643
643	H	0.755574	0.091296	0.37071
644	H	0.83824	0.08858	0.639172
645	H	0.668996	0.417626	0.359186
646	C	0.712228	0.023882	0.379475
647	H	0.711579	0.50707	0.406657
648	H	0.691858	0.008539	0.355119
649	H	0.705865	0.042579	0.394144
650	C	0.799134	0.481977	0.631899
651	H	0.801375	0.997978	0.602879
652	H	0.806683	0.463219	0.620784
653	H	0.817781	0.498129	0.657613
654	C	0.598051	0.300988	0.665754
655	C	0.578244	0.266371	0.347541
656	N	0.543073	0.250495	0.347689
657	C	0.523135	0.264119	0.667115
658	C	0.542022	0.299104	0.650059
659	C	0.579063	0.316783	0.650397
660	H	0.592699	0.341709	0.63829
661	C	0.985563	0.241923	0.337362
662	C	0.966734	0.207799	0.35704
663	C	0.929686	0.189939	0.356386
664	C	0.910681	0.204874	0.338304
665	C	0.93039	0.238635	0.653744
666	N	0.965562	0.254599	0.653884
667	H	0.916056	0.165657	0.370442
668	H	0.918795	0.25128	0.639564
669	H	0.589755	0.252973	0.359585
670	C	0.983462	0.189663	0.379103
671	H	0.500225	0.205689	0.406409
672	H	0.998854	0.184785	0.354656
673	H	0.964758	0.164519	0.393564
674	C	0.52538	0.318513	0.631503
675	H	0.544139	0.344755	0.620167
676	H	0.509283	0.321169	0.657147
677	C	0.689615	0.372188	0.665774
678	N	0.654157	0.354356	0.665791
679	C	0.635175	0.318925	0.665801
680	N	0.653005	0.301296	0.665828
681	C	0.688437	0.317744	0.665808
682	N	0.706063	0.353204	0.665801
683	C	0.819212	0.133752	0.671571
684	N	0.854672	0.151523	0.671571
685	C	0.873603	0.186953	0.671598
686	N	0.855829	0.20464	0.671608
687	C	0.820401	0.18814	0.671608
688	N	0.802711	0.15268	0.671585
689	C	0.706372	0.298557	0.999089
690	C	0.741014	0.313387	0.680792
691	N	0.756888	0.29409	0.680943
692	C	0.743237	0.260506	0.000457
693	C	0.708229	0.244387	0.983477
694	C	0.690554	0.263752	0.983813
695	H	0.665609	0.252444	0.971762
696	C	0.765431	0.245129	0.6707
697	C	0.799526	0.260397	0.690455
698	C	0.817389	0.241213	0.689798
699	C	0.802481	0.207299	0.671642
700	C	0.768748	0.193271	0.986994
701	N	0.752782	0.212479	0.987139
702	H	0.84165	0.251843	0.703911
703	H	0.756127	0.169054	0.972754
704	H	0.754431	0.338313	0.692772
705	C	0.817624	0.295224	0.712608
706	H	0.801539	0.295927	0.739864
707	H	0.822563	0.315535	0.688199
708	H	0.842732	0.301632	0.727157
709	C	0.688786	0.208305	0.965023
710	H	0.702634	0.206124	0.93606
711	H	0.662517	0.200794	0.953777
712	H	0.686198	0.189596	0.990693
713	C	0.708806	0.409315	0.999038
714	C	0.693946	0.429131	0.680624
715	N	0.713246	0.464301	0.680782
716	C	0.74686	0.484231	0.00041
717	C	0.763008	0.465338	0.983541
718	C	0.74364	0.4283	0.98387
719	H	0.75497	0.41466	0.971903
720	C	0.762238	0.021799	0.670653
721	C	0.747003	0.040621	0.690516
722	C	0.766178	0.077667	0.689852
723	C	0.800056	0.096676	0.671588
724	C	0.81405	0.076978	0.986827
725	N	0.794849	0.041803	0.986978
726	H	0.755574	0.091296	0.704045
727	H	0.83824	0.08858	0.972503
728	H	0.668996	0.417626	0.692517
729	C	0.712228	0.023882	0.712806
730	H	0.711579	0.50707	0.739989
731	H	0.691858	0.008539	0.68845
732	H	0.705865	0.042579	0.727475
733	C	0.799134	0.481977	0.965234
734	H	0.801375	0.997978	0.936214
735	H	0.806683	0.463219	0.954119
736	H	0.817781	0.498129	0.990944
737	C	0.598051	0.300988	0.999085
738	C	0.578244	0.266371	0.680876
739	N	0.543073	0.250495	0.68102
740	C	0.523135	0.264119	0.00045
741	C	0.542022	0.299104	0.98339
742	C	0.579063	0.316783	0.983732
743	H	0.592699	0.341709	0.971621
744	C	0.985563	0.241923	0.670693
745	C	0.966734	0.207799	0.690375
746	C	0.929686	0.189939	0.689718
747	C	0.910681	0.204874	0.671638
748	C	0.93039	0.238635	0.987075
749	N	0.965562	0.254599	0.987219
750	H	0.916056	0.165657	0.703773
751	H	0.918795	0.25128	0.972899
752	H	0.589755	0.252973	0.69292
753	C	0.983462	0.189663	0.712434
754	H	0.500225	0.205689	0.739744
755	H	0.998854	0.184785	0.687987
756	H	0.964758	0.164519	0.726895
757	C	0.52538	0.318513	0.964838
758	H	0.544139	0.344755	0.953498
759	H	0.509283	0.321169	0.990482
760	C	0.689617	0.872191	0.999105
761	N	0.654154	0.854355	0.999125
762	C	0.635173	0.818925	0.999136
763	N	0.653005	0.801296	0.999159
764	C	0.688435	0.817744	0.999139
765	N	0.706063	0.853204	0.999136
766	C	0.819213	0.633753	0.004906
767	N	0.854672	0.651523	0.004906
768	C	0.873604	0.686954	0.004935
769	N	0.85583	0.704641	0.004943
770	C	0.820398	0.68814	0.004942
771	N	0.802712	0.65268	0.004918
772	C	0.706372	0.798557	0.332423
773	C	0.741015	0.81339	0.014124
774	N	0.756888	0.79409	0.014275
775	C	0.743238	0.760507	0.333789
776	C	0.708229	0.744387	0.316812
777	C	0.690554	0.763751	0.317147
778	H	0.665609	0.752444	0.305098
779	C	0.765429	0.745129	0.004032
780	C	0.799527	0.760398	0.02379
781	C	0.817388	0.741213	0.023132
782	C	0.802481	0.707299	0.004975
783	C	0.768748	0.693271	0.320327
784	N	0.752783	0.712479	0.320472
785	H	0.841649	0.751842	0.037246
786	H	0.756129	0.669056	0.306086
787	H	0.754433	0.838316	0.026101
788	C	0.817621	0.795224	0.045946
789	H	0.801538	0.795925	0.073202
790	H	0.822563	0.815534	0.021536
791	H	0.84273	0.801632	0.060495
792	C	0.688786	0.708305	0.298361
793	H	0.702634	0.706123	0.269396
794	H	0.662517	0.700794	0.287117
795	H	0.686198	0.689596	0.324032
796	C	0.708806	0.909315	0.332372
797	C	0.693945	0.929131	0.013956
798	N	0.713247	0.964303	0.014114
799	C	0.74686	0.984231	0.333744
800	C	0.763008	0.965338	0.316876
801	C	0.74364	0.928299	0.317203
802	H	0.754971	0.914662	0.305237
803	C	0.762238	0.521799	0.003986
804	C	0.747003	0.540622	0.023848
805	C	0.766178	0.577668	0.023183
806	C	0.800056	0.596676	0.004922
807	C	0.81405	0.576977	0.320162
808	N	0.79485	0.541805	0.320313
809	H	0.755575	0.591297	0.037376
810	H	0.838241	0.588582	0.305841
811	H	0.668994	0.917625	0.025849
812	C	0.712227	0.523883	0.046138
813	H	0.71158	0.007068	0.073325
814	H	0.691858	0.50854	0.021782
815	H	0.705862	0.542579	0.060807
816	C	0.799135	0.98198	0.29857
817	H	0.801372	0.497978	0.269545
818	H	0.806683	0.963219	0.287455
819	H	0.817781	0.998129	0.324281
820	C	0.598052	0.800991	0.332421
821	C	0.578244	0.76637	0.014214
822	N	0.543073	0.750498	0.01436
823	C	0.523135	0.764119	0.333785
824	C	0.542023	0.799104	0.316723
825	C	0.579063	0.816783	0.317062
826	H	0.592699	0.841709	0.30495
827	C	0.985564	0.741924	0.004029
828	C	0.966733	0.707796	0.023705
829	C	0.929688	0.689938	0.02305
830	C	0.910682	0.704875	0.004972
831	C	0.930388	0.738635	0.320415
832	N	0.965563	0.754602	0.320557
833	H	0.916055	0.665655	0.037103
834	H	0.918794	0.751282	0.30624
835	H	0.589755	0.752976	0.02626
836	C	0.983461	0.689661	0.045762
837	H	0.500224	0.705683	0.073071
838	H	0.998854	0.684786	0.021313
839	H	0.964755	0.664514	0.060218
840	C	0.525381	0.81851	0.298164
841	H	0.544139	0.844752	0.286821
842	H	0.509284	0.821169	0.323805
843	C	0.689617	0.872191	0.332439
844	N	0.654154	0.854355	0.332458
845	C	0.635173	0.818925	0.332468
846	N	0.653005	0.801296	0.332494
847	C	0.688435	0.817744	0.332474
848	N	0.706063	0.853204	0.332469
849	C	0.819213	0.633753	0.33824
850	N	0.854672	0.651523	0.33824
851	C	0.873604	0.686954	0.338267
852	N	0.85583	0.704641	0.338277
853	C	0.820398	0.68814	0.338274
854	N	0.802712	0.65268	0.33825
855	C	0.706372	0.798557	0.665757
856	C	0.741015	0.81339	0.347457
857	N	0.756888	0.79409	0.347608
858	C	0.743238	0.760507	0.667122
859	C	0.708229	0.744387	0.650146
860	C	0.690554	0.763751	0.650481
861	H	0.665609	0.752444	0.638431
862	C	0.765429	0.745129	0.337365
863	C	0.799527	0.760398	0.357124
864	C	0.817388	0.741213	0.356467
865	C	0.802481	0.707299	0.338307
866	C	0.768748	0.693271	0.65366
867	N	0.752783	0.712479	0.653804
868	H	0.841649	0.751842	0.370579
869	H	0.756129	0.669056	0.63942
870	H	0.754433	0.838316	0.359434
871	C	0.817621	0.795224	0.37928
872	H	0.801538	0.795925	0.406533
873	H	0.822563	0.815534	0.354871
874	H	0.84273	0.801632	0.393829
875	C	0.688786	0.708305	0.631695
876	H	0.702634	0.706123	0.602728
877	H	0.662517	0.700794	0.620449
878	H	0.686198	0.689596	0.657365
879	C	0.708806	0.909315	0.665704
880	C	0.693945	0.929131	0.34729
881	N	0.713247	0.964303	0.347447
882	C	0.74686	0.984231	0.667078
883	C	0.763008	0.965338	0.65021
884	C	0.74364	0.928299	0.650535
885	H	0.754971	0.914662	0.638571
886	C	0.762238	0.521799	0.337318
887	C	0.747003	0.540622	0.357181
888	C	0.766178	0.577668	0.356517
889	C	0.800056	0.596676	0.338257
890	C	0.81405	0.576977	0.653496
891	N	0.79485	0.541805	0.653646
892	H	0.755575	0.591297	0.37071
893	H	0.838241	0.588582	0.639175
894	H	0.668994	0.917625	0.359183
895	C	0.712227	0.523883	0.379471
896	H	0.71158	0.007068	0.406657
897	H	0.691858	0.50854	0.355115
898	H	0.705862	0.542579	0.394141
899	C	0.799135	0.98198	0.631902
900	H	0.801372	0.497978	0.602879
901	H	0.806683	0.963219	0.620787
902	H	0.817781	0.998129	0.657613
903	C	0.598052	0.800991	0.665754
904	C	0.578244	0.76637	0.347548
905	N	0.543073	0.750498	0.347692
906	C	0.523135	0.764119	0.667119
907	C	0.542023	0.799104	0.650055
908	C	0.579063	0.816783	0.650394
909	H	0.592699	0.841709	0.638283
910	C	0.985564	0.741924	0.337362
911	C	0.966733	0.707796	0.357037
912	C	0.929688	0.689938	0.356383
913	C	0.910682	0.704875	0.338307
914	C	0.930388	0.738635	0.653747
915	N	0.965563	0.754602	0.653891
916	H	0.916055	0.665655	0.370435
917	H	0.918794	0.751282	0.639574
918	H	0.589755	0.752976	0.359592
919	C	0.983461	0.689661	0.379096
920	H	0.500224	0.705683	0.406406
921	H	0.998854	0.684786	0.354646
922	H	0.964755	0.664514	0.39355
923	C	0.525381	0.81851	0.631497
924	H	0.544139	0.844752	0.620154
925	H	0.509284	0.821169	0.657137
926	C	0.689617	0.872191	0.665774
927	N	0.654154	0.854355	0.665791
928	C	0.635173	0.818925	0.665801
929	N	0.653005	0.801296	0.665828
930	C	0.688435	0.817744	0.665808
931	N	0.706063	0.853204	0.665801
932	C	0.819213	0.633753	0.671571
933	N	0.854672	0.651523	0.671571
934	C	0.873604	0.686954	0.671602
935	N	0.85583	0.704641	0.671608
936	C	0.820398	0.68814	0.671608
937	N	0.802712	0.65268	0.671585
938	C	0.706372	0.798557	0.999089
939	C	0.741015	0.81339	0.680789
940	N	0.756888	0.79409	0.680943
941	C	0.743238	0.760507	0.000457
942	C	0.708229	0.744387	0.983477
943	C	0.690554	0.763751	0.983813
944	H	0.665609	0.752444	0.971765
945	C	0.765429	0.745129	0.6707
946	C	0.799527	0.760398	0.690455
947	C	0.817388	0.741213	0.689798
948	C	0.802481	0.707299	0.671642
949	C	0.768748	0.693271	0.986994
950	N	0.752783	0.712479	0.987139
951	H	0.841649	0.751842	0.703911
952	H	0.756129	0.669056	0.972751
953	H	0.754433	0.838316	0.692769
954	C	0.817621	0.795224	0.712612
955	H	0.801538	0.795925	0.739868
956	H	0.822563	0.815534	0.688202
957	H	0.84273	0.801632	0.72716
958	C	0.688786	0.708305	0.965026
959	H	0.702634	0.706123	0.936063
960	H	0.662517	0.700794	0.953783
961	H	0.686198	0.689596	0.990699
962	C	0.708806	0.909315	0.999038
963	C	0.693945	0.929131	0.680621
964	N	0.713247	0.964303	0.680782
965	C	0.74686	0.984231	0.00041
966	C	0.763008	0.965338	0.983541
967	C	0.74364	0.928299	0.98387
968	H	0.754971	0.914662	0.971903
969	C	0.762238	0.521799	0.670653
970	C	0.747003	0.540622	0.690512
971	C	0.766178	0.577668	0.689848
972	C	0.800056	0.596676	0.671588
973	C	0.81405	0.576977	0.986827
974	N	0.79485	0.541805	0.986981
975	H	0.755575	0.591297	0.704041
976	H	0.838241	0.588582	0.972506
977	H	0.668994	0.917625	0.692514
978	C	0.712227	0.523883	0.712803
979	H	0.71158	0.007068	0.739992
980	H	0.691858	0.50854	0.688447
981	H	0.705862	0.542579	0.727472
982	C	0.799135	0.98198	0.965237
983	H	0.801372	0.497978	0.936211
984	H	0.806683	0.963219	0.954122
985	H	0.817781	0.998129	0.990948
986	C	0.598052	0.800991	0.999089
987	C	0.578244	0.76637	0.680879
988	N	0.543073	0.750498	0.681027
989	C	0.523135	0.764119	0.00045
990	C	0.542023	0.799104	0.98339
991	C	0.579063	0.816783	0.983729
992	H	0.592699	0.841709	0.971618
993	C	0.985564	0.741924	0.670696
994	C	0.966733	0.707796	0.690371
995	C	0.929688	0.689938	0.689718
996	C	0.910682	0.704875	0.671638
997	C	0.930388	0.738635	0.987082
998	N	0.965563	0.754602	0.987222
999	H	0.916055	0.665655	0.70377
1000	H	0.918794	0.751282	0.972905
1001	H	0.589755	0.752976	0.692926
1002	C	0.983461	0.689661	0.712427
1003	H	0.500224	0.705683	0.739737
1004	H	0.998854	0.684786	0.687981
1005	H	0.964755	0.664514	0.726885
1006	C	0.525381	0.81851	0.964831
1007	H	0.544139	0.844752	0.953488
1008	H	0.509284	0.821169	0.990471
