data_C360H360N144_2018-02-15_10:33:21
#******************************************
#
# CIF file created by Zeo++
# Zeo++ is an open source package to
# analyze microporous materials
#
#*******************************************

_cell_length_a		43.0906   
_cell_length_b		43.0906   
_cell_length_c		30.0598   
_cell_angle_alpha		90   
_cell_angle_beta		90   
_cell_angle_gamma		120   

_symmetry_space_group_name_H-M		'P1'
_symmetry_Int_Tables_number		1
_symmetry_cell_setting		Monoclinic

loop_
_symmetry_equiv_pos_as_xyz
'+x,+y,+z'

loop_
_atom_site_label
_atom_site_type_symbol
_atom_site_fract_x
_atom_site_fract_y
_atom_site_fract_z
1	C	0.190139	0.368041	0.957461
2	N	0.200412	0.342957	0.957737
3	C	0.175912	0.307376	0.957474
4	N	0.140555	0.297102	0.95775
5	C	0.12947	0.321599	0.957464
6	N	0.154555	0.356955	0.957727
7	C	0.186481	0.279734	0.293744
8	H	0.176059	0.262195	0.264686
9	H	0.173591	0.263747	0.990126
10	C	0.09126	0.311031	0.960382
11	H	0.084152	0.321452	0.264646
12	H	0.088155	0.323925	0.990086
13	C	0.217775	0.406254	0.960345
14	H	0.235296	0.41335	0.264603
15	H	0.233783	0.409376	0.990046
16	C	0.306873	0.12997	0.040519
17	N	0.296606	0.155058	0.040269
18	C	0.32111	0.190638	0.040566
19	N	0.356467	0.200906	0.040296
20	C	0.367545	0.176403	0.040556
21	N	0.342455	0.141047	0.040263
22	C	0.310547	0.218284	0.370987
23	H	0.323441	0.234284	0.341283
24	H	0.32097	0.235812	0.066723
25	C	0.405753	0.186966	0.037647
26	H	0.408861	0.174079	0.34127
27	H	0.412855	0.176534	0.066711
28	C	0.27923	0.09176	0.037601
29	H	0.26323	0.088659	0.341233
30	H	0.261703	0.08465	0.066671
31	C	0.26512	0.25681	0.041045
32	C	0.253938	0.279568	0.022475
33	C	0.237176	0.271902	0.313787
34	C	0.231912	0.241216	0.290355
35	C	0.24309	0.218454	0.308927
36	C	0.259854	0.226124	0.017614
37	H	0.219905	0.235365	0.259777
38	H	0.257834	0.301638	0.039885
39	H	0.277129	0.262662	0.071621
40	H	0.239199	0.196388	0.291514
41	N	0.225932	0.295263	0.296941
42	H	0.237782	0.305058	0.266586
43	N	0.271097	0.202759	0.034459
44	H	0.259248	0.192965	0.064813
45	C	0.240696	0.007813	0.040966
46	C	0.217929	0.473876	0.022387
47	C	0.225602	0.464784	0.3137
48	C	0.256292	0.490201	0.290275
49	C	0.279052	0.02414	0.308849
50	C	0.271386	0.033231	0.01754
51	H	0.262149	0.484043	0.259703
52	H	0.195861	0.4557	0.039797
53	H	0.234844	0.013967	0.071543
54	H	0.30113	0.04231	0.291448
55	N	0.202242	0.430173	0.296859
56	H	0.19245	0.432223	0.266501
57	N	0.294754	0.067835	0.034393
58	H	0.304546	0.065773	0.064744
59	C	0.489707	0.232387	0.041031
60	C	0.023643	0.243564	0.022448
61	C	0.032733	0.260336	0.313765
62	C	0.007311	0.265606	0.290346
63	C	0.473373	0.254428	0.308928
64	C	0.464284	0.237661	0.017614
65	H	0.013465	0.27762	0.259774
66	H	0.041819	0.239669	0.039852
67	H	0.483551	0.220374	0.071604
68	H	0.455198	0.258328	0.291527
69	N	0.067338	0.27158	0.296911
70	H	0.065279	0.259732	0.266556
71	N	0.429679	0.226417	0.034467
72	H	0.431738	0.238258	0.064827
73	C	0.190139	0.368041	0.290795
74	N	0.200412	0.342957	0.291071
75	C	0.175912	0.307376	0.290806
76	N	0.140555	0.297102	0.291082
77	C	0.12947	0.321599	0.290798
78	N	0.154555	0.356955	0.291059
79	C	0.186481	0.279734	0.627076
80	H	0.176059	0.262195	0.598018
81	H	0.173591	0.263747	0.323458
82	C	0.09126	0.311031	0.293714
83	H	0.084152	0.321452	0.597978
84	H	0.088155	0.323925	0.323419
85	C	0.217775	0.406254	0.293678
86	H	0.235296	0.41335	0.597938
87	H	0.233783	0.409376	0.32338
88	C	0.306873	0.12997	0.373851
89	N	0.296606	0.155058	0.373602
90	C	0.32111	0.190638	0.373901
91	N	0.356467	0.200906	0.373628
92	C	0.367545	0.176403	0.373891
93	N	0.342455	0.141047	0.373595
94	C	0.310547	0.218284	0.704322
95	H	0.323441	0.234284	0.674615
96	H	0.32097	0.235812	0.400056
97	C	0.405753	0.186966	0.37098
98	H	0.408861	0.174079	0.674602
99	H	0.412855	0.176534	0.400046
100	C	0.27923	0.09176	0.370934
101	H	0.26323	0.088659	0.674565
102	H	0.261703	0.08465	0.400006
103	C	0.26512	0.25681	0.37438
104	C	0.253938	0.279568	0.355807
105	C	0.237176	0.271902	0.64712
106	C	0.231912	0.241216	0.62369
107	C	0.24309	0.218454	0.642259
108	C	0.259854	0.226124	0.350947
109	H	0.219905	0.235365	0.593111
110	H	0.257834	0.301638	0.373219
111	H	0.277129	0.262662	0.404956
112	H	0.239199	0.196388	0.624848
113	N	0.225932	0.295263	0.630273
114	H	0.237782	0.305058	0.599921
115	N	0.271097	0.202759	0.367793
116	H	0.259248	0.192965	0.398146
117	C	0.240696	0.007813	0.3743
118	C	0.217929	0.473876	0.355721
119	C	0.225602	0.464784	0.647033
120	C	0.256292	0.490201	0.62361
121	C	0.279052	0.02414	0.642183
122	C	0.271386	0.033231	0.350874
123	H	0.262149	0.484043	0.593034
124	H	0.195861	0.4557	0.373129
125	H	0.234844	0.013967	0.404876
126	H	0.30113	0.04231	0.624781
127	N	0.202242	0.430173	0.630194
128	H	0.19245	0.432223	0.599834
129	N	0.294754	0.067835	0.367727
130	H	0.304546	0.065773	0.398076
131	C	0.489707	0.232387	0.374364
132	C	0.023643	0.243564	0.355781
133	C	0.032733	0.260336	0.6471
134	C	0.007311	0.265606	0.62368
135	C	0.473373	0.254428	0.642263
136	C	0.464284	0.237661	0.350947
137	H	0.013465	0.27762	0.593107
138	H	0.041819	0.239669	0.373186
139	H	0.483551	0.220374	0.404939
140	H	0.455198	0.258328	0.624861
141	N	0.067338	0.27158	0.630243
142	H	0.065279	0.259732	0.599891
143	N	0.429679	0.226417	0.3678
144	H	0.431738	0.238258	0.398159
145	C	0.190139	0.368041	0.624129
146	N	0.200412	0.342957	0.624405
147	C	0.175912	0.307376	0.624139
148	N	0.140555	0.297102	0.624415
149	C	0.12947	0.321599	0.624132
150	N	0.154555	0.356955	0.624392
151	C	0.186481	0.279734	0.960412
152	H	0.176059	0.262195	0.931353
153	H	0.173591	0.263747	0.65679
154	C	0.09126	0.311031	0.627046
155	H	0.084152	0.321452	0.931313
156	H	0.088155	0.323925	0.656754
157	C	0.217775	0.406254	0.62701
158	H	0.235296	0.41335	0.93127
159	H	0.233783	0.409376	0.656714
160	C	0.306873	0.12997	0.707187
161	N	0.296606	0.155058	0.706937
162	C	0.32111	0.190638	0.707233
163	N	0.356467	0.200906	0.706964
164	C	0.367545	0.176403	0.707223
165	N	0.342455	0.141047	0.706931
166	C	0.310547	0.218284	0.037654
167	H	0.323441	0.234284	0.007949
168	H	0.32097	0.235812	0.733391
169	C	0.405753	0.186966	0.704312
170	H	0.408861	0.174079	0.007936
171	H	0.412855	0.176534	0.733378
172	C	0.27923	0.09176	0.704269
173	H	0.26323	0.088659	0.007899
174	H	0.261703	0.08465	0.733338
175	C	0.26512	0.25681	0.707712
176	C	0.253938	0.279568	0.689143
177	C	0.237176	0.271902	0.980455
178	C	0.231912	0.241216	0.957022
179	C	0.24309	0.218454	0.975595
180	C	0.259854	0.226124	0.684282
181	H	0.219905	0.235365	0.926443
182	H	0.257834	0.301638	0.706551
183	H	0.277129	0.262662	0.738288
184	H	0.239199	0.196388	0.95818
185	N	0.225932	0.295263	0.963609
186	H	0.237782	0.305058	0.933253
187	N	0.271097	0.202759	0.701125
188	H	0.259248	0.192965	0.731478
189	C	0.240696	0.007813	0.707632
190	C	0.217929	0.473876	0.689053
191	C	0.225602	0.464784	0.980369
192	C	0.256292	0.490201	0.956942
193	C	0.279052	0.02414	0.975515
194	C	0.271386	0.033231	0.684206
195	H	0.262149	0.484043	0.92637
196	H	0.195861	0.4557	0.706465
197	H	0.234844	0.013967	0.738211
198	H	0.30113	0.04231	0.958116
199	N	0.202242	0.430173	0.963526
200	H	0.19245	0.432223	0.933169
201	N	0.294754	0.067835	0.701059
202	H	0.304546	0.065773	0.731412
203	C	0.489707	0.232387	0.707699
204	C	0.023643	0.243564	0.689116
205	C	0.032733	0.260336	0.980432
206	C	0.007311	0.265606	0.957012
207	C	0.473373	0.254428	0.975595
208	C	0.464284	0.237661	0.684282
209	H	0.013465	0.27762	0.92644
210	H	0.041819	0.239669	0.706518
211	H	0.483551	0.220374	0.738271
212	H	0.455198	0.258328	0.958193
213	N	0.067338	0.27158	0.963579
214	H	0.065279	0.259732	0.933223
215	N	0.429679	0.226417	0.701135
216	H	0.431738	0.238258	0.731495
217	C	0.190138	0.86804	0.957461
218	N	0.200413	0.842958	0.957737
219	C	0.175911	0.807374	0.957474
220	N	0.140554	0.7971	0.95775
221	C	0.129468	0.821598	0.957464
222	N	0.154555	0.856956	0.957727
223	C	0.186482	0.779735	0.293744
224	H	0.176059	0.762194	0.264686
225	H	0.17359	0.763745	0.990126
226	C	0.091262	0.811032	0.960382
227	H	0.08415	0.82145	0.264646
228	H	0.088156	0.823924	0.990086
229	C	0.217774	0.906255	0.960345
230	H	0.235297	0.913351	0.264603
231	H	0.233784	0.909377	0.990046
232	C	0.306873	0.629969	0.040519
233	N	0.296605	0.655057	0.040269
234	C	0.32111	0.690638	0.040566
235	N	0.356467	0.700906	0.040296
236	C	0.367545	0.676403	0.040556
237	N	0.342454	0.641047	0.040263
238	C	0.310547	0.718284	0.370987
239	H	0.323442	0.734285	0.341283
240	H	0.32097	0.735812	0.066723
241	C	0.405754	0.686967	0.037647
242	H	0.40886	0.674077	0.34127
243	H	0.412855	0.676534	0.066711
244	C	0.279231	0.591759	0.037601
245	H	0.26323	0.588659	0.341233
246	H	0.261703	0.58465	0.066671
247	C	0.265121	0.75681	0.041045
248	C	0.253938	0.779569	0.022475
249	C	0.237176	0.7719	0.313787
250	C	0.231911	0.741215	0.290355
251	C	0.24309	0.718453	0.308927
252	C	0.259854	0.726122	0.017614
253	H	0.219905	0.735365	0.259777
254	H	0.257835	0.801639	0.039885
255	H	0.27713	0.762663	0.071621
256	H	0.2392	0.696388	0.291514
257	N	0.225933	0.795264	0.296941
258	H	0.237782	0.805058	0.266586
259	N	0.271097	0.702758	0.034459
260	H	0.259247	0.692964	0.064813
261	C	0.240695	0.507812	0.040966
262	C	0.217931	0.973877	0.022387
263	C	0.225602	0.964782	0.3137
264	C	0.256291	0.990199	0.290275
265	C	0.279053	0.52414	0.308849
266	C	0.271386	0.533232	0.01754
267	H	0.262148	0.984041	0.259703
268	H	0.195861	0.955701	0.039797
269	H	0.234844	0.513967	0.071543
270	H	0.301131	0.542311	0.291448
271	N	0.202243	0.930174	0.296859
272	H	0.19245	0.932221	0.266501
273	N	0.294755	0.567835	0.034393
274	H	0.304547	0.565772	0.064744
275	C	0.489706	0.732388	0.041031
276	C	0.023644	0.743565	0.022448
277	C	0.032732	0.760334	0.313765
278	C	0.00731	0.765605	0.290346
279	C	0.473374	0.754428	0.308928
280	C	0.464285	0.737661	0.017614
281	H	0.013466	0.777621	0.259774
282	H	0.041821	0.739668	0.039852
283	H	0.483553	0.720374	0.071604
284	H	0.455199	0.758327	0.291527
285	N	0.067338	0.771581	0.296911
286	H	0.06528	0.759731	0.266556
287	N	0.42968	0.726417	0.034467
288	H	0.431738	0.738259	0.064827
289	C	0.190138	0.86804	0.290795
290	N	0.200413	0.842958	0.291071
291	C	0.175911	0.807374	0.290806
292	N	0.140554	0.7971	0.291082
293	C	0.129468	0.821598	0.290798
294	N	0.154555	0.856956	0.291059
295	C	0.186482	0.779735	0.627076
296	H	0.176059	0.762194	0.598018
297	H	0.17359	0.763745	0.323458
298	C	0.091262	0.811032	0.293714
299	H	0.08415	0.82145	0.597978
300	H	0.088156	0.823924	0.323419
301	C	0.217774	0.906255	0.293678
302	H	0.235297	0.913351	0.597938
303	H	0.233784	0.909377	0.32338
304	C	0.306873	0.629969	0.373851
305	N	0.296605	0.655057	0.373602
306	C	0.32111	0.690638	0.373901
307	N	0.356467	0.700906	0.373628
308	C	0.367545	0.676403	0.373891
309	N	0.342454	0.641047	0.373595
310	C	0.310547	0.718284	0.704322
311	H	0.323442	0.734285	0.674615
312	H	0.32097	0.735812	0.400056
313	C	0.405754	0.686967	0.37098
314	H	0.40886	0.674077	0.674602
315	H	0.412855	0.676534	0.400046
316	C	0.279231	0.591759	0.370934
317	H	0.26323	0.588659	0.674565
318	H	0.261703	0.58465	0.400006
319	C	0.265121	0.75681	0.37438
320	C	0.253938	0.779569	0.355807
321	C	0.237176	0.7719	0.64712
322	C	0.231911	0.741215	0.62369
323	C	0.24309	0.718453	0.642259
324	C	0.259854	0.726122	0.350947
325	H	0.219905	0.735365	0.593111
326	H	0.257835	0.801639	0.373219
327	H	0.27713	0.762663	0.404956
328	H	0.2392	0.696388	0.624848
329	N	0.225933	0.795264	0.630273
330	H	0.237782	0.805058	0.599921
331	N	0.271097	0.702758	0.367793
332	H	0.259247	0.692964	0.398146
333	C	0.240695	0.507812	0.3743
334	C	0.217931	0.973877	0.355721
335	C	0.225602	0.964782	0.647033
336	C	0.256291	0.990199	0.62361
337	C	0.279053	0.52414	0.642183
338	C	0.271386	0.533232	0.350874
339	H	0.262148	0.984041	0.593038
340	H	0.195861	0.955701	0.373129
341	H	0.234844	0.513967	0.404876
342	H	0.301131	0.542311	0.624781
343	N	0.202243	0.930174	0.630194
344	H	0.19245	0.932221	0.599834
345	N	0.294755	0.567835	0.367727
346	H	0.304547	0.565772	0.398076
347	C	0.489706	0.732388	0.374364
348	C	0.023644	0.743565	0.355781
349	C	0.032732	0.760334	0.6471
350	C	0.00731	0.765605	0.62368
351	C	0.473374	0.754428	0.642263
352	C	0.464285	0.737661	0.350947
353	H	0.013466	0.777621	0.593107
354	H	0.041821	0.739668	0.373186
355	H	0.483553	0.720374	0.404939
356	H	0.455199	0.758327	0.624861
357	N	0.067338	0.771581	0.630243
358	H	0.06528	0.759731	0.599891
359	N	0.42968	0.726417	0.3678
360	H	0.431738	0.738259	0.398159
361	C	0.190138	0.86804	0.624129
362	N	0.200413	0.842958	0.624405
363	C	0.175911	0.807374	0.624139
364	N	0.140554	0.7971	0.624415
365	C	0.129468	0.821598	0.624132
366	N	0.154555	0.856956	0.624392
367	C	0.186482	0.779735	0.960412
368	H	0.176059	0.762194	0.931353
369	H	0.17359	0.763745	0.65679
370	C	0.091262	0.811032	0.627046
371	H	0.08415	0.82145	0.931313
372	H	0.088156	0.823924	0.656754
373	C	0.217774	0.906255	0.62701
374	H	0.235297	0.913351	0.93127
375	H	0.233784	0.909377	0.656714
376	C	0.306873	0.629969	0.707187
377	N	0.296605	0.655057	0.706937
378	C	0.32111	0.690638	0.707233
379	N	0.356467	0.700906	0.706964
380	C	0.367545	0.676403	0.707223
381	N	0.342454	0.641047	0.706931
382	C	0.310547	0.718284	0.037654
383	H	0.323442	0.734285	0.007949
384	H	0.32097	0.735812	0.733391
385	C	0.405754	0.686967	0.704312
386	H	0.40886	0.674077	0.007936
387	H	0.412855	0.676534	0.733378
388	C	0.279231	0.591759	0.704269
389	H	0.26323	0.588659	0.007899
390	H	0.261703	0.58465	0.733338
391	C	0.265121	0.75681	0.707712
392	C	0.253938	0.779569	0.689143
393	C	0.237176	0.7719	0.980455
394	C	0.231911	0.741215	0.957022
395	C	0.24309	0.718453	0.975595
396	C	0.259854	0.726122	0.684282
397	H	0.219905	0.735365	0.926443
398	H	0.257835	0.801639	0.706551
399	H	0.27713	0.762663	0.738288
400	H	0.2392	0.696388	0.95818
401	N	0.225933	0.795264	0.963609
402	H	0.237782	0.805058	0.933253
403	N	0.271097	0.702758	0.701125
404	H	0.259247	0.692964	0.731478
405	C	0.240695	0.507812	0.707632
406	C	0.217931	0.973877	0.689053
407	C	0.225602	0.964782	0.980369
408	C	0.256291	0.990199	0.956942
409	C	0.279053	0.52414	0.975515
410	C	0.271386	0.533232	0.684206
411	H	0.262148	0.984041	0.92637
412	H	0.195861	0.955701	0.706465
413	H	0.234844	0.513967	0.738211
414	H	0.301131	0.542311	0.958116
415	N	0.202243	0.930174	0.963526
416	H	0.19245	0.932221	0.933169
417	N	0.294755	0.567835	0.701059
418	H	0.304547	0.565772	0.731412
419	C	0.489706	0.732388	0.707699
420	C	0.023644	0.743565	0.689116
421	C	0.032732	0.760334	0.980432
422	C	0.00731	0.765605	0.957012
423	C	0.473374	0.754428	0.975595
424	C	0.464285	0.737661	0.684282
425	H	0.013466	0.777621	0.92644
426	H	0.041821	0.739668	0.706518
427	H	0.483553	0.720374	0.738271
428	H	0.455199	0.758327	0.958193
429	N	0.067338	0.771581	0.963579
430	H	0.06528	0.759731	0.933223
431	N	0.42968	0.726417	0.701135
432	H	0.431738	0.738259	0.731495
433	C	0.690138	0.368041	0.957461
434	N	0.70041	0.342957	0.957737
435	C	0.675911	0.307376	0.957474
436	N	0.640554	0.297102	0.95775
437	C	0.62947	0.321599	0.957464
438	N	0.654554	0.356955	0.957727
439	C	0.686481	0.279734	0.293744
440	H	0.676059	0.262195	0.264686
441	H	0.67359	0.263747	0.990126
442	C	0.59126	0.311031	0.960382
443	H	0.58415	0.321452	0.264646
444	H	0.588155	0.323925	0.990086
445	C	0.717775	0.406254	0.960345
446	H	0.735296	0.41335	0.264603
447	H	0.733782	0.409376	0.990046
448	C	0.806873	0.12997	0.040519
449	N	0.796605	0.155058	0.040269
450	C	0.821111	0.190638	0.040566
451	N	0.856465	0.200906	0.040296
452	C	0.867543	0.176403	0.040556
453	N	0.842453	0.141047	0.040263
454	C	0.810546	0.218284	0.370987
455	H	0.82344	0.234284	0.341283
456	H	0.820969	0.235812	0.066723
457	C	0.905753	0.186966	0.037647
458	H	0.908861	0.174079	0.34127
459	H	0.912855	0.176534	0.066711
460	C	0.77923	0.09176	0.037601
461	H	0.763229	0.088659	0.341233
462	H	0.761702	0.08465	0.066671
463	C	0.765119	0.25681	0.041045
464	C	0.753937	0.279568	0.022475
465	C	0.737175	0.271902	0.313787
466	C	0.731911	0.241216	0.290355
467	C	0.743089	0.218454	0.308927
468	C	0.759853	0.226124	0.017614
469	H	0.719904	0.235365	0.259777
470	H	0.757833	0.301638	0.039885
471	H	0.777128	0.262662	0.071621
472	H	0.739199	0.196388	0.291514
473	N	0.725932	0.295263	0.296941
474	H	0.737782	0.305058	0.266586
475	N	0.771097	0.202759	0.034459
476	H	0.759247	0.192965	0.064813
477	C	0.740696	0.007813	0.040966
478	C	0.717929	0.473876	0.022387
479	C	0.725602	0.464784	0.3137
480	C	0.756291	0.490201	0.290275
481	C	0.779052	0.02414	0.308849
482	C	0.771386	0.033231	0.01754
483	H	0.762149	0.484043	0.259703
484	H	0.695859	0.4557	0.039797
485	H	0.734843	0.013967	0.071543
486	H	0.80113	0.04231	0.291448
487	N	0.702242	0.430173	0.296859
488	H	0.69245	0.432223	0.266501
489	N	0.794754	0.067835	0.034393
490	H	0.804546	0.065773	0.064744
491	C	0.989704	0.232387	0.041031
492	C	0.523642	0.243564	0.022448
493	C	0.532734	0.260336	0.313765
494	C	0.507311	0.265606	0.290346
495	C	0.973373	0.254428	0.308928
496	C	0.964284	0.237661	0.017614
497	H	0.513465	0.27762	0.259774
498	H	0.54182	0.239669	0.039852
499	H	0.983551	0.220374	0.071604
500	H	0.955198	0.258328	0.291527
501	N	0.567339	0.27158	0.296911
502	H	0.565279	0.259732	0.266556
503	N	0.929679	0.226417	0.034467
504	H	0.931738	0.238258	0.064827
505	C	0.690138	0.368041	0.290795
506	N	0.70041	0.342957	0.291071
507	C	0.675911	0.307376	0.290806
508	N	0.640554	0.297102	0.291082
509	C	0.62947	0.321599	0.290798
510	N	0.654554	0.356955	0.291059
511	C	0.686481	0.279734	0.627076
512	H	0.676059	0.262195	0.598018
513	H	0.67359	0.263747	0.323458
514	C	0.59126	0.311031	0.293714
515	H	0.58415	0.321452	0.597978
516	H	0.588155	0.323925	0.323419
517	C	0.717775	0.406254	0.293678
518	H	0.735296	0.41335	0.597938
519	H	0.733782	0.409376	0.32338
520	C	0.806873	0.12997	0.373851
521	N	0.796605	0.155058	0.373602
522	C	0.821111	0.190638	0.373901
523	N	0.856465	0.200906	0.373628
524	C	0.867543	0.176403	0.373891
525	N	0.842453	0.141047	0.373595
526	C	0.810546	0.218284	0.704322
527	H	0.82344	0.234284	0.674615
528	H	0.820969	0.235812	0.400056
529	C	0.905753	0.186966	0.37098
530	H	0.908861	0.174079	0.674602
531	H	0.912855	0.176534	0.400046
532	C	0.77923	0.09176	0.370934
533	H	0.763229	0.088659	0.674565
534	H	0.761702	0.08465	0.400006
535	C	0.765119	0.25681	0.37438
536	C	0.753937	0.279568	0.355807
537	C	0.737175	0.271902	0.64712
538	C	0.731911	0.241216	0.62369
539	C	0.743089	0.218454	0.642259
540	C	0.759853	0.226124	0.350947
541	H	0.719904	0.235365	0.593111
542	H	0.757833	0.301638	0.373219
543	H	0.777128	0.262662	0.404956
544	H	0.739199	0.196388	0.624848
545	N	0.725932	0.295263	0.630273
546	H	0.737782	0.305058	0.599921
547	N	0.771097	0.202759	0.367793
548	H	0.759247	0.192965	0.398146
549	C	0.740696	0.007813	0.3743
550	C	0.717929	0.473876	0.355721
551	C	0.725602	0.464784	0.647033
552	C	0.756291	0.490201	0.62361
553	C	0.779052	0.02414	0.642183
554	C	0.771386	0.033231	0.350874
555	H	0.762149	0.484043	0.593034
556	H	0.695859	0.4557	0.373129
557	H	0.734843	0.013967	0.404876
558	H	0.80113	0.04231	0.624781
559	N	0.702242	0.430173	0.630194
560	H	0.69245	0.432223	0.599834
561	N	0.794754	0.067835	0.367727
562	H	0.804546	0.065773	0.398076
563	C	0.989704	0.232387	0.374364
564	C	0.523642	0.243564	0.355781
565	C	0.532734	0.260336	0.6471
566	C	0.507311	0.265606	0.62368
567	C	0.973373	0.254428	0.642263
568	C	0.964284	0.237661	0.350947
569	H	0.513465	0.27762	0.593107
570	H	0.54182	0.239669	0.373186
571	H	0.983551	0.220374	0.404939
572	H	0.955198	0.258328	0.624861
573	N	0.567339	0.27158	0.630243
574	H	0.565279	0.259732	0.599891
575	N	0.929679	0.226417	0.3678
576	H	0.931738	0.238258	0.398159
577	C	0.690138	0.368041	0.624129
578	N	0.70041	0.342957	0.624405
579	C	0.675911	0.307376	0.624139
580	N	0.640554	0.297102	0.624415
581	C	0.62947	0.321599	0.624132
582	N	0.654554	0.356955	0.624392
583	C	0.686481	0.279734	0.960412
584	H	0.676059	0.262195	0.931353
585	H	0.67359	0.263747	0.65679
586	C	0.59126	0.311031	0.627046
587	H	0.58415	0.321452	0.931313
588	H	0.588155	0.323925	0.656754
589	C	0.717775	0.406254	0.62701
590	H	0.735296	0.41335	0.93127
591	H	0.733782	0.409376	0.656714
592	C	0.806873	0.12997	0.707187
593	N	0.796605	0.155058	0.706937
594	C	0.821111	0.190638	0.707233
595	N	0.856465	0.200906	0.706964
596	C	0.867543	0.176403	0.707223
597	N	0.842453	0.141047	0.706931
598	C	0.810546	0.218284	0.037654
599	H	0.82344	0.234284	0.007949
600	H	0.820969	0.235812	0.733391
601	C	0.905753	0.186966	0.704312
602	H	0.908861	0.174079	0.007936
603	H	0.912855	0.176534	0.733378
604	C	0.77923	0.09176	0.704269
605	H	0.763229	0.088659	0.007899
606	H	0.761702	0.08465	0.733338
607	C	0.765119	0.25681	0.707712
608	C	0.753937	0.279568	0.689143
609	C	0.737175	0.271902	0.980455
610	C	0.731911	0.241216	0.957022
611	C	0.743089	0.218454	0.975595
612	C	0.759853	0.226124	0.684282
613	H	0.719904	0.235365	0.926443
614	H	0.757833	0.301638	0.706551
615	H	0.777128	0.262662	0.738288
616	H	0.739199	0.196388	0.95818
617	N	0.725932	0.295263	0.963609
618	H	0.737782	0.305058	0.933253
619	N	0.771097	0.202759	0.701125
620	H	0.759247	0.192965	0.731478
621	C	0.740696	0.007813	0.707632
622	C	0.717929	0.473876	0.689053
623	C	0.725602	0.464784	0.980369
624	C	0.756291	0.490201	0.956942
625	C	0.779052	0.02414	0.975515
626	C	0.771386	0.033231	0.684206
627	H	0.762149	0.484043	0.92637
628	H	0.695859	0.4557	0.706465
629	H	0.734843	0.013967	0.738211
630	H	0.80113	0.04231	0.958116
631	N	0.702242	0.430173	0.963526
632	H	0.69245	0.432223	0.933169
633	N	0.794754	0.067835	0.701059
634	H	0.804546	0.065773	0.731412
635	C	0.989704	0.232387	0.707699
636	C	0.523642	0.243564	0.689116
637	C	0.532734	0.260336	0.980432
638	C	0.507311	0.265606	0.957012
639	C	0.973373	0.254428	0.975595
640	C	0.964284	0.237661	0.684282
641	H	0.513465	0.27762	0.92644
642	H	0.54182	0.239669	0.706518
643	H	0.983551	0.220374	0.738271
644	H	0.955198	0.258328	0.958193
645	N	0.567339	0.27158	0.963579
646	H	0.565279	0.259732	0.933223
647	N	0.929679	0.226417	0.701135
648	H	0.931738	0.238258	0.731495
649	C	0.690138	0.86804	0.957461
650	N	0.700412	0.842958	0.957737
651	C	0.675911	0.807374	0.957474
652	N	0.640554	0.7971	0.95775
653	C	0.629469	0.821598	0.957464
654	N	0.654555	0.856956	0.957727
655	C	0.686482	0.779735	0.293744
656	H	0.676057	0.762194	0.264686
657	H	0.673591	0.763745	0.990126
658	C	0.59126	0.811032	0.960382
659	H	0.58415	0.82145	0.264646
660	H	0.588154	0.823924	0.990086
661	C	0.717774	0.906255	0.960345
662	H	0.735295	0.913351	0.264603
663	H	0.733784	0.909377	0.990046
664	C	0.806871	0.629969	0.040519
665	N	0.796605	0.655057	0.040269
666	C	0.821109	0.690638	0.040566
667	N	0.856466	0.700906	0.040296
668	C	0.867544	0.676403	0.040556
669	N	0.842454	0.641047	0.040263
670	C	0.810547	0.718284	0.370987
671	H	0.823441	0.734285	0.341283
672	H	0.82097	0.735812	0.066723
673	C	0.905754	0.686967	0.037647
674	H	0.908859	0.674077	0.34127
675	H	0.912854	0.676534	0.066711
676	C	0.779231	0.591759	0.037601
677	H	0.76323	0.588659	0.341233
678	H	0.761703	0.58465	0.066671
679	C	0.765121	0.75681	0.041045
680	C	0.753938	0.779569	0.022475
681	C	0.737175	0.7719	0.313787
682	C	0.731911	0.741215	0.290355
683	C	0.74309	0.718453	0.308927
684	C	0.759853	0.726122	0.017614
685	H	0.719905	0.735365	0.259777
686	H	0.757835	0.801639	0.039885
687	H	0.77713	0.762663	0.071621
688	H	0.739201	0.696388	0.291514
689	N	0.725931	0.795264	0.296941
690	H	0.737781	0.805058	0.266586
691	N	0.771097	0.702758	0.034459
692	H	0.759247	0.692964	0.064813
693	C	0.740694	0.507812	0.040966
694	C	0.717929	0.973877	0.022387
695	C	0.7256	0.964782	0.3137
696	C	0.756291	0.990199	0.290275
697	C	0.779053	0.52414	0.308849
698	C	0.771385	0.533232	0.01754
699	H	0.762147	0.984041	0.259703
700	H	0.695861	0.955701	0.039797
701	H	0.734844	0.513967	0.071543
702	H	0.801132	0.542311	0.291448
703	N	0.702243	0.930174	0.296859
704	H	0.692449	0.932221	0.266501
705	N	0.794755	0.567835	0.034393
706	H	0.804547	0.565772	0.064744
707	C	0.989706	0.732388	0.041031
708	C	0.523643	0.743565	0.022448
709	C	0.532732	0.760334	0.313765
710	C	0.507311	0.765605	0.290346
711	C	0.973374	0.754428	0.308928
712	C	0.964285	0.737661	0.017614
713	H	0.513465	0.777621	0.259774
714	H	0.541819	0.739668	0.039852
715	H	0.983553	0.720374	0.071604
716	H	0.955199	0.758327	0.291527
717	N	0.567339	0.771581	0.296911
718	H	0.565279	0.759731	0.266556
719	N	0.92968	0.726417	0.034467
720	H	0.931737	0.738259	0.064827
721	C	0.690138	0.86804	0.290795
722	N	0.700412	0.842958	0.291071
723	C	0.675911	0.807374	0.290806
724	N	0.640554	0.7971	0.291082
725	C	0.629469	0.821598	0.290798
726	N	0.654555	0.856956	0.291059
727	C	0.686482	0.779735	0.627076
728	H	0.676057	0.762194	0.598018
729	H	0.673591	0.763745	0.323458
730	C	0.59126	0.811032	0.293714
731	H	0.58415	0.82145	0.597978
732	H	0.588154	0.823924	0.323419
733	C	0.717774	0.906255	0.293678
734	H	0.735295	0.913351	0.597938
735	H	0.733784	0.909377	0.32338
736	C	0.806871	0.629969	0.373851
737	N	0.796605	0.655057	0.373602
738	C	0.821109	0.690638	0.373901
739	N	0.856466	0.700906	0.373628
740	C	0.867544	0.676403	0.373891
741	N	0.842454	0.641047	0.373595
742	C	0.810547	0.718284	0.704322
743	H	0.823441	0.734285	0.674615
744	H	0.82097	0.735812	0.400056
745	C	0.905754	0.686967	0.37098
746	H	0.908859	0.674077	0.674602
747	H	0.912854	0.676534	0.400046
748	C	0.779231	0.591759	0.370934
749	H	0.76323	0.588659	0.674565
750	H	0.761703	0.58465	0.400006
751	C	0.765121	0.75681	0.37438
752	C	0.753938	0.779569	0.355807
753	C	0.737175	0.7719	0.64712
754	C	0.731911	0.741215	0.62369
755	C	0.74309	0.718453	0.642259
756	C	0.759853	0.726122	0.350947
757	H	0.719905	0.735365	0.593111
758	H	0.757835	0.801639	0.373219
759	H	0.77713	0.762663	0.404956
760	H	0.739201	0.696388	0.624848
761	N	0.725931	0.795264	0.630273
762	H	0.737781	0.805058	0.599921
763	N	0.771097	0.702758	0.367793
764	H	0.759247	0.692964	0.398146
765	C	0.740694	0.507812	0.3743
766	C	0.717929	0.973877	0.355721
767	C	0.7256	0.964782	0.647033
768	C	0.756291	0.990199	0.62361
769	C	0.779053	0.52414	0.642183
770	C	0.771385	0.533232	0.350874
771	H	0.762147	0.984041	0.593038
772	H	0.695861	0.955701	0.373129
773	H	0.734844	0.513967	0.404876
774	H	0.801132	0.542311	0.624781
775	N	0.702243	0.930174	0.630194
776	H	0.692449	0.932221	0.599834
777	N	0.794755	0.567835	0.367727
778	H	0.804547	0.565772	0.398076
779	C	0.989706	0.732388	0.374364
780	C	0.523643	0.743565	0.355781
781	C	0.532732	0.760334	0.6471
782	C	0.507311	0.765605	0.62368
783	C	0.973374	0.754428	0.642263
784	C	0.964285	0.737661	0.350947
785	H	0.513465	0.777621	0.593107
786	H	0.541819	0.739668	0.373186
787	H	0.983553	0.720374	0.404939
788	H	0.955199	0.758327	0.624861
789	N	0.567339	0.771581	0.630243
790	H	0.565279	0.759731	0.599891
791	N	0.92968	0.726417	0.3678
792	H	0.931737	0.738259	0.398159
793	C	0.690138	0.86804	0.624129
794	N	0.700412	0.842958	0.624405
795	C	0.675911	0.807374	0.624139
796	N	0.640554	0.7971	0.624415
797	C	0.629469	0.821598	0.624132
798	N	0.654555	0.856956	0.624392
799	C	0.686482	0.779735	0.960412
800	H	0.676057	0.762194	0.931353
801	H	0.673591	0.763745	0.65679
802	C	0.59126	0.811032	0.627046
803	H	0.58415	0.82145	0.931313
804	H	0.588154	0.823924	0.656754
805	C	0.717774	0.906255	0.62701
806	H	0.735295	0.913351	0.93127
807	H	0.733784	0.909377	0.656714
808	C	0.806871	0.629969	0.707187
809	N	0.796605	0.655057	0.706937
810	C	0.821109	0.690638	0.707233
811	N	0.856466	0.700906	0.706964
812	C	0.867544	0.676403	0.707223
813	N	0.842454	0.641047	0.706931
814	C	0.810547	0.718284	0.037654
815	H	0.823441	0.734285	0.007949
816	H	0.82097	0.735812	0.733391
817	C	0.905754	0.686967	0.704312
818	H	0.908859	0.674077	0.007936
819	H	0.912854	0.676534	0.733378
820	C	0.779231	0.591759	0.704269
821	H	0.76323	0.588659	0.007899
822	H	0.761703	0.58465	0.733338
823	C	0.765121	0.75681	0.707712
824	C	0.753938	0.779569	0.689143
825	C	0.737175	0.7719	0.980455
826	C	0.731911	0.741215	0.957022
827	C	0.74309	0.718453	0.975595
828	C	0.759853	0.726122	0.684282
829	H	0.719905	0.735365	0.926443
830	H	0.757835	0.801639	0.706551
831	H	0.77713	0.762663	0.738288
832	H	0.739201	0.696388	0.95818
833	N	0.725931	0.795264	0.963609
834	H	0.737781	0.805058	0.933253
835	N	0.771097	0.702758	0.701125
836	H	0.759247	0.692964	0.731478
837	C	0.740694	0.507812	0.707632
838	C	0.717929	0.973877	0.689053
839	C	0.7256	0.964782	0.980369
840	C	0.756291	0.990199	0.956942
841	C	0.779053	0.52414	0.975515
842	C	0.771385	0.533232	0.684206
843	H	0.762147	0.984041	0.92637
844	H	0.695861	0.955701	0.706465
845	H	0.734844	0.513967	0.738211
846	H	0.801132	0.542311	0.958116
847	N	0.702243	0.930174	0.963526
848	H	0.692449	0.932221	0.933169
849	N	0.794755	0.567835	0.701059
850	H	0.804547	0.565772	0.731412
851	C	0.989706	0.732388	0.707699
852	C	0.523643	0.743565	0.689116
853	C	0.532732	0.760334	0.980432
854	C	0.507311	0.765605	0.957012
855	C	0.973374	0.754428	0.975595
856	C	0.964285	0.737661	0.684282
857	H	0.513465	0.777621	0.92644
858	H	0.541819	0.739668	0.706518
859	H	0.983553	0.720374	0.738271
860	H	0.955199	0.758327	0.958193
861	N	0.567339	0.771581	0.963579
862	H	0.565279	0.759731	0.933223
863	N	0.92968	0.726417	0.701135
864	H	0.931737	0.738259	0.731495
