data_C648H576N72_2018-02-15_10:36:41
#******************************************
#
# CIF file created by Zeo++
# Zeo++ is an open source package to
# analyze microporous materials
#
#*******************************************

_cell_length_a		44.1905   
_cell_length_b		44.1904   
_cell_length_c		29.7788   
_cell_angle_alpha		90   
_cell_angle_beta		90   
_cell_angle_gamma		120   

_symmetry_space_group_name_H-M		'P1'
_symmetry_Int_Tables_number		1
_symmetry_cell_setting		Monoclinic

loop_
_symmetry_equiv_pos_as_xyz
'+x,+y,+z'

loop_
_atom_site_label
_atom_site_type_symbol
_atom_site_fract_x
_atom_site_fract_y
_atom_site_fract_z
1	C	0.079612	0.315939	0.321504
2	C	0.042624	0.297794	0.320477
3	C	0.023789	0.262835	0.003761
4	C	0.042622	0.246706	0.020378
5	C	0.079609	0.265547	0.019357
6	H	0.09289	0.253772	0.031444
7	H	0.092894	0.34099	0.309395
8	H	0.012589	0.227442	0.263616
9	H	0.012583	0.287044	0.07722
10	C	0.025924	0.210644	0.039302
11	H	0.033044	0.194608	0.018931
12	H	0.035177	0.211603	0.073556
13	C	0.025929	0.317159	0.301547
14	H	0.033051	0.340318	0.321916
15	H	0.035185	0.325453	0.267293
16	C	0.079612	0.315939	0.654839
17	C	0.042624	0.297794	0.653808
18	C	0.023789	0.262835	0.337092
19	C	0.042622	0.246706	0.353712
20	C	0.079609	0.265547	0.352691
21	H	0.09289	0.253772	0.364777
22	H	0.092894	0.34099	0.642726
23	H	0.012589	0.227442	0.596949
24	H	0.012583	0.287044	0.410554
25	C	0.025924	0.210644	0.372634
26	H	0.033044	0.194608	0.352264
27	H	0.035177	0.211603	0.40689
28	C	0.025929	0.317159	0.634882
29	H	0.033051	0.340318	0.655248
30	H	0.035185	0.325453	0.600626
31	C	0.079612	0.315939	0.98817
32	C	0.042624	0.297794	0.987142
33	C	0.023789	0.262835	0.670427
34	C	0.042622	0.246706	0.687043
35	C	0.079609	0.265547	0.686022
36	H	0.09289	0.253772	0.698111
37	H	0.092894	0.34099	0.976061
38	H	0.012589	0.227442	0.930283
39	H	0.012583	0.287044	0.743885
40	C	0.025924	0.210644	0.705969
41	H	0.033044	0.194608	0.685596
42	H	0.035177	0.211603	0.740222
43	C	0.025929	0.317159	0.968213
44	H	0.033051	0.340318	0.988583
45	H	0.035185	0.325453	0.93396
46	C	0.079612	0.815941	0.321504
47	C	0.042624	0.797796	0.320477
48	C	0.023787	0.762834	0.003761
49	C	0.042621	0.746707	0.020378
50	C	0.079608	0.765547	0.019357
51	H	0.09289	0.753772	0.031444
52	H	0.092894	0.840989	0.309395
53	H	0.012588	0.727441	0.263616
54	H	0.012582	0.787044	0.07722
55	C	0.025923	0.710645	0.039302
56	H	0.033044	0.694609	0.018931
57	H	0.035178	0.711604	0.073556
58	C	0.02593	0.817161	0.301547
59	H	0.03305	0.840318	0.321916
60	H	0.035185	0.825453	0.267293
61	C	0.079612	0.815941	0.654839
62	C	0.042624	0.797796	0.653808
63	C	0.023787	0.762834	0.337092
64	C	0.042621	0.746707	0.353712
65	C	0.079608	0.765547	0.352691
66	H	0.09289	0.753772	0.364777
67	H	0.092894	0.840989	0.642726
68	H	0.012588	0.727441	0.596949
69	H	0.012582	0.787044	0.410554
70	C	0.025923	0.710645	0.372634
71	H	0.033044	0.694609	0.352264
72	H	0.035178	0.711604	0.40689
73	C	0.02593	0.817161	0.634882
74	H	0.03305	0.840318	0.655248
75	H	0.035185	0.825453	0.600626
76	C	0.079612	0.815941	0.98817
77	C	0.042624	0.797796	0.987142
78	C	0.023787	0.762834	0.670427
79	C	0.042621	0.746707	0.687043
80	C	0.079608	0.765547	0.686022
81	H	0.09289	0.753772	0.698111
82	H	0.092894	0.840989	0.976061
83	H	0.012588	0.727441	0.930283
84	H	0.012582	0.787044	0.743885
85	C	0.025923	0.710645	0.705969
86	H	0.033044	0.694609	0.685596
87	H	0.035178	0.711604	0.740222
88	C	0.02593	0.817161	0.968213
89	H	0.03305	0.840318	0.988583
90	H	0.035185	0.825453	0.93396
91	C	0.13616	0.319012	0.003753
92	C	0.098808	0.300339	0.337092
93	C	0.13616	0.319012	0.337086
94	C	0.098808	0.300339	0.670424
95	C	0.13616	0.319012	0.67042
96	C	0.098808	0.300339	0.003758
97	C	0.13616	0.819014	0.003753
98	C	0.098809	0.800342	0.337092
99	C	0.13616	0.819014	0.337086
100	C	0.098809	0.800342	0.670424
101	C	0.13616	0.819014	0.67042
102	C	0.098809	0.800342	0.003758
103	N	0.154708	0.354583	0.003753
104	N	0.154703	0.301983	0.003753
105	H	0.168297	0.253763	0.309395
106	H	0.168969	0.194591	0.321916
107	H	0.168311	0.416399	0.031443
108	H	0.168992	0.476242	0.01893
109	N	0.154708	0.354583	0.337086
110	N	0.154703	0.301983	0.337086
111	H	0.168297	0.253763	0.642729
112	H	0.168969	0.194591	0.655248
113	H	0.168311	0.416399	0.364777
114	H	0.168992	0.476242	0.352264
115	N	0.154708	0.354583	0.67042
116	N	0.154703	0.301983	0.67042
117	H	0.168297	0.253763	0.976061
118	H	0.168969	0.194591	0.988583
119	H	0.168311	0.416399	0.698111
120	H	0.168992	0.476242	0.685596
121	N	0.154708	0.854585	0.003753
122	N	0.154703	0.801985	0.003753
123	H	0.168298	0.753765	0.309395
124	H	0.168968	0.69459	0.321916
125	H	0.16831	0.916398	0.031443
126	H	0.168994	0.976244	0.01893
127	N	0.154708	0.854585	0.337086
128	N	0.154703	0.801985	0.337086
129	H	0.168298	0.753765	0.642729
130	H	0.168968	0.69459	0.655248
131	H	0.16831	0.916398	0.364777
132	H	0.168994	0.976244	0.352264
133	N	0.154708	0.854585	0.67042
134	N	0.154703	0.801985	0.67042
135	H	0.168298	0.753765	0.976061
136	H	0.168968	0.69459	0.988583
137	H	0.16831	0.916398	0.698111
138	H	0.168994	0.976244	0.685596
139	C	0.190281	0.373127	0.003753
140	C	0.190275	0.319007	0.003753
141	N	0.207303	0.354578	0.003753
142	C	0.321018	0.134602	0.003757
143	N	0.356567	0.152725	0.003757
144	C	0.374683	0.188273	0.003757
145	N	0.356562	0.205699	0.003757
146	C	0.321013	0.188269	0.003757
147	N	0.303588	0.152721	0.003757
148	C	0.208947	0.300326	0.337092
149	C	0.193347	0.265531	0.321504
150	C	0.211491	0.246688	0.320477
151	C	0.246452	0.262811	0.003761
152	C	0.262581	0.297773	0.020378
153	C	0.24374	0.315921	0.019357
154	H	0.255516	0.340977	0.031443
155	C	0.265182	0.244084	0.003758
156	C	0.289982	0.250062	0.302503
157	C	0.308853	0.231955	0.303877
158	C	0.302516	0.206763	0.003758
159	C	0.277331	0.20043	0.03698
160	C	0.259208	0.219285	0.038347
161	H	0.326729	0.236277	0.279157
162	H	0.272994	0.182535	0.061682
163	C	0.297658	0.274424	0.263982
164	H	0.281845	0.287005	0.263616
165	H	0.292816	0.260109	0.232444
166	H	0.325063	0.294944	0.26503
167	C	0.234837	0.211595	0.07686
168	H	0.222243	0.227397	0.07722
169	H	0.249147	0.216441	0.108402
170	H	0.214325	0.184186	0.075806
171	C	0.298643	0.317138	0.039302
172	H	0.314679	0.340295	0.01893
173	H	0.311751	0.301837	0.040597
174	H	0.297684	0.325432	0.073556
175	C	0.192127	0.210627	0.301547
176	H	0.207428	0.197518	0.300251
177	H	0.183835	0.21159	0.267293
178	C	0.20896	0.410478	0.337089
179	C	0.243757	0.429676	0.321504
180	C	0.2626	0.466663	0.320477
181	C	0.246475	0.4855	0.003761
182	C	0.211513	0.466665	0.020378
183	C	0.193367	0.429678	0.019357
184	C	0.265204	0.022956	0.003758
185	C	0.259225	0.041777	0.302503
186	C	0.277332	0.078756	0.303877
187	C	0.302525	0.097611	0.003758
188	C	0.308858	0.078759	0.03698
189	C	0.290002	0.04178	0.038347
190	H	0.273009	0.09231	0.279157
191	H	0.326753	0.092317	0.061682
192	H	0.255524	0.416394	0.309395
193	C	0.234864	0.025093	0.263982
194	H	0.222282	0.496699	0.263616
195	H	0.249179	0.034565	0.232444
196	H	0.214342	0.031977	0.26503
197	C	0.297693	0.0251	0.07686
198	H	0.28189	0.496704	0.07722
199	H	0.292845	0.034563	0.108402
200	H	0.325101	0.031997	0.075806
201	C	0.192149	0.483362	0.039302
202	H	0.207452	0.011773	0.040597
203	H	0.183855	0.47411	0.073556
204	C	0.298659	0.483357	0.301547
205	H	0.314696	0.476237	0.321916
206	H	0.311768	0.011767	0.300251
207	H	0.297696	0.474102	0.267293
208	C	0.486332	0.244105	0.003758
209	C	0.46751	0.219305	0.302503
210	C	0.43053	0.200434	0.303877
211	C	0.411675	0.206771	0.003758
212	C	0.430527	0.231956	0.03698
213	C	0.467506	0.250079	0.038347
214	H	0.416977	0.182557	0.279157
215	H	0.416971	0.236293	0.061682
216	C	0.484194	0.211628	0.263982
217	H	0.474721	0.21647	0.232444
218	H	0.47731	0.184223	0.26503
219	C	0.484186	0.27445	0.07686
220	H	0.474723	0.260141	0.108402
221	H	0.477289	0.294962	0.075806
222	H	0.497514	0.197537	0.040597
223	H	0.49752	0.30186	0.300251
224	C	0.190281	0.373127	0.337086
225	C	0.190275	0.319007	0.337086
226	N	0.207303	0.354578	0.337086
227	C	0.321018	0.134602	0.337089
228	N	0.356567	0.152725	0.337089
229	C	0.374683	0.188273	0.337089
230	N	0.356562	0.205699	0.337089
231	C	0.321013	0.188269	0.337089
232	N	0.303588	0.152721	0.337089
233	C	0.208947	0.300326	0.670424
234	C	0.193347	0.265531	0.654839
235	C	0.211491	0.246688	0.653811
236	C	0.246452	0.262811	0.337092
237	C	0.262581	0.297773	0.353712
238	C	0.24374	0.315921	0.352691
239	H	0.255516	0.340977	0.364777
240	C	0.265182	0.244084	0.337092
241	C	0.289982	0.250062	0.635835
242	C	0.308853	0.231955	0.637212
243	C	0.302516	0.206763	0.337092
244	C	0.277331	0.20043	0.370314
245	C	0.259208	0.219285	0.371681
246	H	0.326729	0.236277	0.61249
247	H	0.272994	0.182535	0.395016
248	C	0.297658	0.274424	0.597315
249	H	0.281845	0.287005	0.596949
250	H	0.292816	0.260109	0.565779
251	H	0.325063	0.294944	0.598362
252	C	0.234837	0.211595	0.410195
253	H	0.222243	0.227397	0.410554
254	H	0.249147	0.216441	0.441734
255	H	0.214325	0.184186	0.40914
256	C	0.298643	0.317138	0.372634
257	H	0.314679	0.340295	0.352264
258	H	0.311751	0.301837	0.373931
259	H	0.297684	0.325432	0.40689
260	C	0.192127	0.210627	0.634882
261	H	0.207428	0.197518	0.633585
262	H	0.183835	0.21159	0.600626
263	C	0.20896	0.410478	0.670424
264	C	0.243757	0.429676	0.654839
265	C	0.2626	0.466663	0.653811
266	C	0.246475	0.4855	0.337092
267	C	0.211513	0.466665	0.353712
268	C	0.193367	0.429678	0.352691
269	C	0.265204	0.022956	0.337092
270	C	0.259225	0.041777	0.635835
271	C	0.277332	0.078756	0.637212
272	C	0.302525	0.097611	0.337092
273	C	0.308858	0.078759	0.370314
274	C	0.290002	0.04178	0.371681
275	H	0.273009	0.09231	0.61249
276	H	0.326753	0.092317	0.395016
277	H	0.255524	0.416394	0.642729
278	C	0.234864	0.025093	0.597315
279	H	0.222282	0.496699	0.596949
280	H	0.249179	0.034565	0.565779
281	H	0.214342	0.031977	0.598362
282	C	0.297693	0.0251	0.410191
283	H	0.28189	0.496704	0.410554
284	H	0.292845	0.034563	0.441734
285	H	0.325101	0.031997	0.40914
286	C	0.192149	0.483362	0.372634
287	H	0.207452	0.011773	0.373931
288	H	0.183855	0.47411	0.40689
289	C	0.298659	0.483357	0.634882
290	H	0.314696	0.476237	0.655248
291	H	0.311768	0.011767	0.633585
292	H	0.297696	0.474102	0.600626
293	C	0.486332	0.244105	0.337092
294	C	0.46751	0.219305	0.635835
295	C	0.43053	0.200434	0.637212
296	C	0.411675	0.206771	0.337092
297	C	0.430527	0.231956	0.370314
298	C	0.467506	0.250079	0.371681
299	H	0.416977	0.182557	0.61249
300	H	0.416971	0.236293	0.395016
301	C	0.484194	0.211628	0.597315
302	H	0.474721	0.21647	0.565779
303	H	0.47731	0.184223	0.598362
304	C	0.484186	0.27445	0.410191
305	H	0.474723	0.260141	0.441734
306	H	0.477289	0.294962	0.40914
307	H	0.497514	0.197537	0.373931
308	H	0.49752	0.30186	0.633585
309	C	0.190281	0.373127	0.67042
310	C	0.190275	0.319007	0.67042
311	N	0.207303	0.354578	0.67042
312	C	0.321018	0.134602	0.670424
313	N	0.356567	0.152725	0.670424
314	C	0.374683	0.188273	0.670424
315	N	0.356562	0.205699	0.670424
316	C	0.321013	0.188269	0.670424
317	N	0.303588	0.152721	0.670424
318	C	0.208947	0.300326	0.003758
319	C	0.193347	0.265531	0.98817
320	C	0.211491	0.246688	0.987142
321	C	0.246452	0.262811	0.670427
322	C	0.262581	0.297773	0.687043
323	C	0.24374	0.315921	0.686022
324	H	0.255516	0.340977	0.698111
325	C	0.265182	0.244084	0.670424
326	C	0.289982	0.250062	0.96917
327	C	0.308853	0.231955	0.970543
328	C	0.302516	0.206763	0.670424
329	C	0.277331	0.20043	0.703645
330	C	0.259208	0.219285	0.705012
331	H	0.326729	0.236277	0.945824
332	H	0.272994	0.182535	0.728347
333	C	0.297658	0.274424	0.930649
334	H	0.281845	0.287005	0.930283
335	H	0.292816	0.260109	0.89911
336	H	0.325063	0.294944	0.931697
337	C	0.234837	0.211595	0.743526
338	H	0.222243	0.227397	0.743885
339	H	0.249147	0.216441	0.775069
340	H	0.214325	0.184186	0.742472
341	C	0.298643	0.317138	0.705969
342	H	0.314679	0.340295	0.685596
343	H	0.311751	0.301837	0.707262
344	H	0.297684	0.325432	0.740222
345	C	0.192127	0.210627	0.968213
346	H	0.207428	0.197518	0.966917
347	H	0.183835	0.21159	0.93396
348	C	0.20896	0.410478	0.003758
349	C	0.243757	0.429676	0.98817
350	C	0.2626	0.466663	0.987142
351	C	0.246475	0.4855	0.670427
352	C	0.211513	0.466665	0.687043
353	C	0.193367	0.429678	0.686022
354	C	0.265204	0.022956	0.670424
355	C	0.259225	0.041777	0.96917
356	C	0.277332	0.078756	0.970543
357	C	0.302525	0.097611	0.670424
358	C	0.308858	0.078759	0.703645
359	C	0.290002	0.04178	0.705012
360	H	0.273009	0.09231	0.945824
361	H	0.326753	0.092317	0.728347
362	H	0.255524	0.416394	0.976061
363	C	0.234864	0.025093	0.930649
364	H	0.222282	0.496699	0.930283
365	H	0.249179	0.034565	0.89911
366	H	0.214342	0.031977	0.931697
367	C	0.297693	0.0251	0.743526
368	H	0.28189	0.496704	0.743885
369	H	0.292845	0.034563	0.775069
370	H	0.325101	0.031997	0.742472
371	C	0.192149	0.483362	0.705969
372	H	0.207452	0.011773	0.707262
373	H	0.183855	0.47411	0.740222
374	C	0.298659	0.483357	0.968213
375	H	0.314696	0.476237	0.988583
376	H	0.311768	0.011767	0.966917
377	H	0.297696	0.474102	0.93396
378	C	0.486332	0.244105	0.670424
379	C	0.46751	0.219305	0.96917
380	C	0.43053	0.200434	0.970543
381	C	0.411675	0.206771	0.670424
382	C	0.430527	0.231956	0.703645
383	C	0.467506	0.250079	0.705012
384	H	0.416977	0.182557	0.945824
385	H	0.416971	0.236293	0.728347
386	C	0.484194	0.211628	0.930649
387	H	0.474721	0.21647	0.89911
388	H	0.47731	0.184223	0.931697
389	C	0.484186	0.27445	0.743526
390	H	0.474723	0.260141	0.775069
391	H	0.477289	0.294962	0.742472
392	H	0.497514	0.197537	0.707262
393	H	0.49752	0.30186	0.966917
394	C	0.190281	0.873127	0.003753
395	C	0.190275	0.819006	0.003753
396	N	0.207304	0.85458	0.003753
397	C	0.321018	0.634603	0.003757
398	N	0.356566	0.652725	0.003757
399	C	0.374684	0.688275	0.003757
400	N	0.356562	0.705701	0.003757
401	C	0.321013	0.68827	0.003757
402	N	0.303588	0.652722	0.003757
403	C	0.208948	0.800328	0.337092
404	C	0.193347	0.765531	0.321504
405	C	0.211491	0.746689	0.320477
406	C	0.246453	0.762813	0.003761
407	C	0.262581	0.797776	0.020378
408	C	0.24374	0.81592	0.019357
409	H	0.255515	0.840976	0.031443
410	C	0.265181	0.744083	0.003758
411	C	0.289981	0.750062	0.302503
412	C	0.308853	0.731956	0.303877
413	C	0.302516	0.706764	0.003758
414	C	0.277331	0.70043	0.03698
415	C	0.259208	0.719286	0.038347
416	H	0.32673	0.736278	0.279157
417	H	0.272994	0.682537	0.061682
418	C	0.297657	0.774423	0.263982
419	H	0.281844	0.787005	0.263616
420	H	0.292816	0.760109	0.232444
421	H	0.325063	0.794946	0.26503
422	C	0.234837	0.711596	0.07686
423	H	0.222242	0.727397	0.07722
424	H	0.249147	0.716443	0.108402
425	H	0.214326	0.684188	0.075806
426	C	0.298643	0.817138	0.039302
427	H	0.314679	0.840294	0.01893
428	H	0.31175	0.801836	0.040597
429	H	0.297683	0.825432	0.073556
430	C	0.192127	0.710629	0.301547
431	H	0.207428	0.69752	0.300251
432	H	0.183835	0.711591	0.267293
433	C	0.20896	0.91048	0.337089
434	C	0.243756	0.929675	0.321504
435	C	0.262599	0.966662	0.320477
436	C	0.246474	0.985499	0.003761
437	C	0.211514	0.966667	0.020378
438	C	0.193367	0.92968	0.019357
439	C	0.265204	0.522957	0.003758
440	C	0.259225	0.541779	0.302503
441	C	0.277332	0.578756	0.303877
442	C	0.302524	0.597611	0.003758
443	C	0.308858	0.578761	0.03698
444	C	0.290002	0.541782	0.038347
445	H	0.27301	0.592312	0.279157
446	H	0.326752	0.592317	0.061682
447	H	0.255524	0.916393	0.309395
448	C	0.234863	0.525092	0.263982
449	H	0.222282	0.996699	0.263616
450	H	0.249179	0.534567	0.232444
451	H	0.214342	0.531978	0.26503
452	C	0.297691	0.5251	0.07686
453	H	0.281889	0.996704	0.07722
454	H	0.292846	0.534564	0.108402
455	H	0.325101	0.531998	0.075806
456	C	0.192148	0.983365	0.039302
457	H	0.207452	0.511774	0.040597
458	H	0.183856	0.974112	0.073556
459	C	0.29866	0.983359	0.301547
460	H	0.314695	0.976236	0.321916
461	H	0.311769	0.511769	0.300251
462	H	0.297696	0.974104	0.267293
463	C	0.486331	0.744107	0.003758
464	C	0.46751	0.719307	0.302503
465	C	0.430531	0.700436	0.303877
466	C	0.411676	0.706772	0.003758
467	C	0.430527	0.731956	0.03698
468	C	0.467506	0.75008	0.038347
469	H	0.416976	0.682557	0.279157
470	H	0.41697	0.736294	0.061682
471	C	0.484194	0.71163	0.263982
472	H	0.474721	0.716472	0.232444
473	H	0.47731	0.684225	0.26503
474	C	0.484187	0.774452	0.07686
475	H	0.474723	0.76014	0.108402
476	H	0.477289	0.794961	0.075806
477	H	0.497514	0.697538	0.040597
478	H	0.497519	0.80186	0.300251
479	C	0.190281	0.873127	0.337086
480	C	0.190275	0.819006	0.337086
481	N	0.207304	0.85458	0.337086
482	C	0.321018	0.634603	0.337089
483	N	0.356566	0.652725	0.337089
484	C	0.374684	0.688275	0.337089
485	N	0.356562	0.705701	0.337089
486	C	0.321013	0.68827	0.337089
487	N	0.303588	0.652722	0.337089
488	C	0.208948	0.800328	0.670424
489	C	0.193347	0.765531	0.654839
490	C	0.211491	0.746689	0.653811
491	C	0.246453	0.762813	0.337092
492	C	0.262581	0.797776	0.353712
493	C	0.24374	0.81592	0.352691
494	H	0.255515	0.840976	0.364777
495	C	0.265181	0.744083	0.337092
496	C	0.289981	0.750062	0.635835
497	C	0.308853	0.731956	0.637212
498	C	0.302516	0.706764	0.337092
499	C	0.277331	0.70043	0.370314
500	C	0.259208	0.719286	0.371681
501	H	0.32673	0.736278	0.61249
502	H	0.272994	0.682537	0.395016
503	C	0.297657	0.774423	0.597315
504	H	0.281844	0.787005	0.596949
505	H	0.292816	0.760109	0.565779
506	H	0.325063	0.794946	0.598362
507	C	0.234837	0.711596	0.410191
508	H	0.222242	0.727397	0.410554
509	H	0.249147	0.716443	0.441734
510	H	0.214326	0.684188	0.40914
511	C	0.298643	0.817138	0.372634
512	H	0.314679	0.840294	0.352264
513	H	0.31175	0.801836	0.373931
514	H	0.297683	0.825432	0.40689
515	C	0.192127	0.710629	0.634882
516	H	0.207428	0.69752	0.633585
517	H	0.183835	0.711591	0.600626
518	C	0.20896	0.91048	0.670424
519	C	0.243756	0.929675	0.654839
520	C	0.262599	0.966662	0.653811
521	C	0.246474	0.985499	0.337092
522	C	0.211514	0.966667	0.353712
523	C	0.193367	0.92968	0.352691
524	C	0.265204	0.522957	0.337092
525	C	0.259225	0.541779	0.635835
526	C	0.277332	0.578756	0.637212
527	C	0.302524	0.597611	0.337092
528	C	0.308858	0.578761	0.370314
529	C	0.290002	0.541782	0.371681
530	H	0.27301	0.592312	0.61249
531	H	0.326752	0.592317	0.395016
532	H	0.255524	0.916393	0.642729
533	C	0.234863	0.525092	0.597315
534	H	0.222282	0.996699	0.596949
535	H	0.249179	0.534567	0.565779
536	H	0.214342	0.531978	0.598362
537	C	0.297691	0.5251	0.410191
538	H	0.281889	0.996704	0.410554
539	H	0.292846	0.534564	0.441734
540	H	0.325101	0.531998	0.40914
541	C	0.192148	0.983365	0.372634
542	H	0.207452	0.511774	0.373931
543	H	0.183856	0.974112	0.40689
544	C	0.29866	0.983359	0.634882
545	H	0.314695	0.976236	0.655248
546	H	0.311769	0.511769	0.633585
547	H	0.297696	0.974104	0.600626
548	C	0.486331	0.744107	0.337092
549	C	0.46751	0.719307	0.635835
550	C	0.430531	0.700436	0.637212
551	C	0.411676	0.706772	0.337092
552	C	0.430527	0.731956	0.370314
553	C	0.467506	0.75008	0.371681
554	H	0.416976	0.682557	0.61249
555	H	0.41697	0.736294	0.395016
556	C	0.484194	0.71163	0.597315
557	H	0.474721	0.716472	0.565779
558	H	0.47731	0.684225	0.598362
559	C	0.484187	0.774452	0.410191
560	H	0.474723	0.76014	0.441734
561	H	0.477289	0.794961	0.40914
562	H	0.497514	0.697538	0.373931
563	H	0.497519	0.80186	0.633585
564	C	0.190281	0.873127	0.67042
565	C	0.190275	0.819006	0.67042
566	N	0.207304	0.85458	0.67042
567	C	0.321018	0.634603	0.670424
568	N	0.356566	0.652725	0.670424
569	C	0.374684	0.688275	0.670424
570	N	0.356562	0.705701	0.670424
571	C	0.321013	0.68827	0.670424
572	N	0.303588	0.652722	0.670424
573	C	0.208948	0.800328	0.003758
574	C	0.193347	0.765531	0.98817
575	C	0.211491	0.746689	0.987142
576	C	0.246453	0.762813	0.670427
577	C	0.262581	0.797776	0.687043
578	C	0.24374	0.81592	0.686022
579	H	0.255515	0.840976	0.698111
580	C	0.265181	0.744083	0.670424
581	C	0.289981	0.750062	0.96917
582	C	0.308853	0.731956	0.970543
583	C	0.302516	0.706764	0.670424
584	C	0.277331	0.70043	0.703645
585	C	0.259208	0.719286	0.705012
586	H	0.32673	0.736278	0.945824
587	H	0.272994	0.682537	0.728347
588	C	0.297657	0.774423	0.930649
589	H	0.281844	0.787005	0.930283
590	H	0.292816	0.760109	0.89911
591	H	0.325063	0.794946	0.931697
592	C	0.234837	0.711596	0.743526
593	H	0.222242	0.727397	0.743885
594	H	0.249147	0.716443	0.775069
595	H	0.214326	0.684188	0.742472
596	C	0.298643	0.817138	0.705969
597	H	0.314679	0.840294	0.685596
598	H	0.31175	0.801836	0.707262
599	H	0.297683	0.825432	0.740222
600	C	0.192127	0.710629	0.968213
601	H	0.207428	0.69752	0.966917
602	H	0.183835	0.711591	0.93396
603	C	0.20896	0.91048	0.003758
604	C	0.243756	0.929675	0.98817
605	C	0.262599	0.966662	0.987142
606	C	0.246474	0.985499	0.670427
607	C	0.211514	0.966667	0.687043
608	C	0.193367	0.92968	0.686022
609	C	0.265204	0.522957	0.670424
610	C	0.259225	0.541779	0.96917
611	C	0.277332	0.578756	0.970543
612	C	0.302524	0.597611	0.670424
613	C	0.308858	0.578761	0.703645
614	C	0.290002	0.541782	0.705012
615	H	0.27301	0.592312	0.945824
616	H	0.326752	0.592317	0.728347
617	H	0.255524	0.916393	0.976061
618	C	0.234863	0.525092	0.930649
619	H	0.222282	0.996699	0.930283
620	H	0.249179	0.534567	0.89911
621	H	0.214342	0.531978	0.931697
622	C	0.297691	0.5251	0.743526
623	H	0.281889	0.996704	0.743885
624	H	0.292846	0.534564	0.775069
625	H	0.325101	0.531998	0.742472
626	C	0.192148	0.983365	0.705969
627	H	0.207452	0.511774	0.707262
628	H	0.183856	0.974112	0.740222
629	C	0.29866	0.983359	0.968213
630	H	0.314695	0.976236	0.988583
631	H	0.311769	0.511769	0.966917
632	H	0.297696	0.974104	0.93396
633	C	0.486331	0.744107	0.670424
634	C	0.46751	0.719307	0.96917
635	C	0.430531	0.700436	0.970543
636	C	0.411676	0.706772	0.670424
637	C	0.430527	0.731956	0.703645
638	C	0.467506	0.75008	0.705012
639	H	0.416976	0.682557	0.945824
640	H	0.41697	0.736294	0.728347
641	C	0.484194	0.71163	0.930649
642	H	0.474721	0.716472	0.89911
643	H	0.47731	0.684225	0.931697
644	C	0.484187	0.774452	0.743526
645	H	0.474723	0.76014	0.775069
646	H	0.477289	0.794961	0.742472
647	H	0.497514	0.697538	0.707262
648	H	0.497519	0.80186	0.966917
649	C	0.69028	0.373127	0.003753
650	N	0.654708	0.354583	0.003753
651	C	0.63616	0.319012	0.003753
652	N	0.654703	0.301983	0.003753
653	C	0.690275	0.319007	0.003753
654	N	0.707303	0.354578	0.003753
655	C	0.821017	0.134602	0.003757
656	N	0.856566	0.152725	0.003757
657	C	0.874684	0.188273	0.003757
658	N	0.856561	0.205699	0.003757
659	C	0.821014	0.188269	0.003757
660	N	0.803587	0.152721	0.003757
661	C	0.708946	0.300326	0.337092
662	C	0.693347	0.265531	0.321504
663	C	0.71149	0.246688	0.320477
664	C	0.746452	0.262811	0.003761
665	C	0.762582	0.297773	0.020378
666	C	0.74374	0.315921	0.019357
667	H	0.755517	0.340977	0.031443
668	C	0.765182	0.244084	0.003758
669	C	0.789982	0.250062	0.302503
670	C	0.808852	0.231955	0.303877
671	C	0.802516	0.206763	0.003758
672	C	0.777331	0.20043	0.03698
673	C	0.759207	0.219285	0.038347
674	H	0.826729	0.236277	0.279157
675	H	0.772993	0.182535	0.061682
676	H	0.668298	0.253763	0.309395
677	C	0.797659	0.274424	0.263982
678	H	0.781845	0.287005	0.263616
679	H	0.792816	0.260109	0.232444
680	H	0.825063	0.294944	0.26503
681	C	0.734838	0.211595	0.07686
682	H	0.722243	0.227397	0.07722
683	H	0.749146	0.216441	0.108402
684	H	0.714326	0.184186	0.075806
685	C	0.798643	0.317138	0.039302
686	H	0.814679	0.340295	0.01893
687	H	0.81175	0.301837	0.040597
688	H	0.797682	0.325432	0.073556
689	C	0.692127	0.210627	0.301547
690	H	0.66897	0.194591	0.321916
691	H	0.707428	0.197518	0.300251
692	H	0.683835	0.21159	0.267293
693	C	0.70896	0.410478	0.337089
694	C	0.743756	0.429676	0.321504
695	C	0.762598	0.466663	0.320477
696	C	0.746475	0.4855	0.003761
697	C	0.711512	0.466665	0.020378
698	C	0.693367	0.429678	0.019357
699	H	0.668311	0.416399	0.031443
700	C	0.765203	0.022956	0.003758
701	C	0.759224	0.041777	0.302503
702	C	0.777333	0.078756	0.303877
703	C	0.802524	0.097611	0.003758
704	C	0.808857	0.078759	0.03698
705	C	0.790001	0.04178	0.038347
706	H	0.77301	0.09231	0.279157
707	H	0.826751	0.092317	0.061682
708	H	0.755524	0.416394	0.309395
709	C	0.734865	0.025093	0.263982
710	H	0.722281	0.496699	0.263616
711	H	0.749178	0.034565	0.232444
712	H	0.714342	0.031977	0.26503
713	C	0.797691	0.0251	0.07686
714	H	0.781889	0.496704	0.07722
715	H	0.792846	0.034563	0.108402
716	H	0.8251	0.031997	0.075806
717	C	0.692149	0.483362	0.039302
718	H	0.668991	0.476242	0.01893
719	H	0.707451	0.011773	0.040597
720	H	0.683854	0.47411	0.073556
721	C	0.79866	0.483357	0.301547
722	H	0.814697	0.476237	0.321916
723	H	0.811767	0.011767	0.300251
724	H	0.797696	0.474102	0.267293
725	C	0.598809	0.300339	0.337092
726	C	0.579612	0.315939	0.321504
727	C	0.542624	0.297794	0.320477
728	C	0.523789	0.262835	0.003761
729	C	0.542621	0.246706	0.020378
730	C	0.579609	0.265547	0.019357
731	H	0.592888	0.253772	0.031444
732	C	0.986331	0.244105	0.003758
733	C	0.967509	0.219305	0.302503
734	C	0.930531	0.200434	0.303877
735	C	0.911677	0.206771	0.003758
736	C	0.930528	0.231956	0.03698
737	C	0.967505	0.250079	0.038347
738	H	0.916976	0.182557	0.279157
739	H	0.916969	0.236293	0.061682
740	H	0.592895	0.34099	0.309395
741	C	0.984193	0.211628	0.263982
742	H	0.512589	0.227442	0.263616
743	H	0.974722	0.21647	0.232444
744	H	0.977311	0.184223	0.26503
745	C	0.984187	0.27445	0.07686
746	H	0.512583	0.287044	0.07722
747	H	0.974724	0.260141	0.108402
748	H	0.97729	0.294962	0.075806
749	C	0.525923	0.210644	0.039302
750	H	0.533044	0.194608	0.018931
751	H	0.997513	0.197537	0.040597
752	H	0.535177	0.211603	0.073556
753	C	0.52593	0.317159	0.301547
754	H	0.533051	0.340318	0.321916
755	H	0.997519	0.30186	0.300251
756	H	0.535184	0.325453	0.267293
757	C	0.69028	0.373127	0.337086
758	N	0.654708	0.354583	0.337086
759	C	0.63616	0.319012	0.337086
760	N	0.654703	0.301983	0.337086
761	C	0.690275	0.319007	0.337086
762	N	0.707303	0.354578	0.337086
763	C	0.821017	0.134602	0.337089
764	N	0.856566	0.152725	0.337089
765	C	0.874684	0.188273	0.337089
766	N	0.856561	0.205699	0.337089
767	C	0.821014	0.188269	0.337089
768	N	0.803587	0.152721	0.337089
769	C	0.708946	0.300326	0.670424
770	C	0.693347	0.265531	0.654839
771	C	0.71149	0.246688	0.653811
772	C	0.746452	0.262811	0.337092
773	C	0.762582	0.297773	0.353712
774	C	0.74374	0.315921	0.352691
775	H	0.755517	0.340977	0.364777
776	C	0.765182	0.244084	0.337092
777	C	0.789982	0.250062	0.635835
778	C	0.808852	0.231955	0.637212
779	C	0.802516	0.206763	0.337092
780	C	0.777331	0.20043	0.370314
781	C	0.759207	0.219285	0.371681
782	H	0.826729	0.236277	0.61249
783	H	0.772993	0.182535	0.395016
784	H	0.668298	0.253763	0.642729
785	C	0.797659	0.274424	0.597315
786	H	0.781845	0.287005	0.596949
787	H	0.792816	0.260109	0.565779
788	H	0.825063	0.294944	0.598362
789	C	0.734838	0.211595	0.410195
790	H	0.722243	0.227397	0.410554
791	H	0.749146	0.216441	0.441734
792	H	0.714326	0.184186	0.40914
793	C	0.798643	0.317138	0.372634
794	H	0.814679	0.340295	0.352264
795	H	0.81175	0.301837	0.373931
796	H	0.797682	0.325432	0.40689
797	C	0.692127	0.210627	0.634882
798	H	0.66897	0.194591	0.655248
799	H	0.707428	0.197518	0.633585
800	H	0.683835	0.21159	0.600626
801	C	0.70896	0.410478	0.670424
802	C	0.743756	0.429676	0.654839
803	C	0.762598	0.466663	0.653811
804	C	0.746475	0.4855	0.337092
805	C	0.711512	0.466665	0.353712
806	C	0.693367	0.429678	0.352691
807	H	0.668311	0.416399	0.364777
808	C	0.765203	0.022956	0.337092
809	C	0.759224	0.041777	0.635835
810	C	0.777333	0.078756	0.637212
811	C	0.802524	0.097611	0.337092
812	C	0.808857	0.078759	0.370314
813	C	0.790001	0.04178	0.371681
814	H	0.77301	0.09231	0.61249
815	H	0.826751	0.092317	0.395016
816	H	0.755524	0.416394	0.642729
817	C	0.734865	0.025093	0.597315
818	H	0.722281	0.496699	0.596949
819	H	0.749178	0.034565	0.565779
820	H	0.714342	0.031977	0.598362
821	C	0.797691	0.0251	0.410191
822	H	0.781889	0.496704	0.410554
823	H	0.792846	0.034563	0.441734
824	H	0.8251	0.031997	0.40914
825	C	0.692149	0.483362	0.372634
826	H	0.668991	0.476242	0.352264
827	H	0.707451	0.011773	0.373931
828	H	0.683854	0.47411	0.40689
829	C	0.79866	0.483357	0.634882
830	H	0.814697	0.476237	0.655248
831	H	0.811767	0.011767	0.633585
832	H	0.797696	0.474102	0.600626
833	C	0.598809	0.300339	0.670424
834	C	0.579612	0.315939	0.654839
835	C	0.542624	0.297794	0.653808
836	C	0.523789	0.262835	0.337092
837	C	0.542621	0.246706	0.353712
838	C	0.579609	0.265547	0.352691
839	H	0.592888	0.253772	0.364777
840	C	0.986331	0.244105	0.337092
841	C	0.967509	0.219305	0.635835
842	C	0.930531	0.200434	0.637212
843	C	0.911677	0.206771	0.337092
844	C	0.930528	0.231956	0.370314
845	C	0.967505	0.250079	0.371681
846	H	0.916976	0.182557	0.61249
847	H	0.916969	0.236293	0.395016
848	H	0.592895	0.34099	0.642726
849	C	0.984193	0.211628	0.597315
850	H	0.512589	0.227442	0.596949
851	H	0.974722	0.21647	0.565779
852	H	0.977311	0.184223	0.598362
853	C	0.984187	0.27445	0.410191
854	H	0.512583	0.287044	0.410554
855	H	0.974724	0.260141	0.441734
856	H	0.97729	0.294962	0.40914
857	C	0.525923	0.210644	0.372634
858	H	0.533044	0.194608	0.352264
859	H	0.997513	0.197537	0.373931
860	H	0.535177	0.211603	0.40689
861	C	0.52593	0.317159	0.634882
862	H	0.533051	0.340318	0.655248
863	H	0.997519	0.30186	0.633585
864	H	0.535184	0.325453	0.600626
865	C	0.69028	0.373127	0.67042
866	N	0.654708	0.354583	0.67042
867	C	0.63616	0.319012	0.67042
868	N	0.654703	0.301983	0.67042
869	C	0.690275	0.319007	0.67042
870	N	0.707303	0.354578	0.67042
871	C	0.821017	0.134602	0.670424
872	N	0.856566	0.152725	0.670424
873	C	0.874684	0.188273	0.670424
874	N	0.856561	0.205699	0.670424
875	C	0.821014	0.188269	0.670424
876	N	0.803587	0.152721	0.670424
877	C	0.708946	0.300326	0.003758
878	C	0.693347	0.265531	0.98817
879	C	0.71149	0.246688	0.987142
880	C	0.746452	0.262811	0.670427
881	C	0.762582	0.297773	0.687043
882	C	0.74374	0.315921	0.686022
883	H	0.755517	0.340977	0.698111
884	C	0.765182	0.244084	0.670424
885	C	0.789982	0.250062	0.96917
886	C	0.808852	0.231955	0.970543
887	C	0.802516	0.206763	0.670424
888	C	0.777331	0.20043	0.703645
889	C	0.759207	0.219285	0.705012
890	H	0.826729	0.236277	0.945824
891	H	0.772993	0.182535	0.728347
892	H	0.668298	0.253763	0.976061
893	C	0.797659	0.274424	0.930649
894	H	0.781845	0.287005	0.930283
895	H	0.792816	0.260109	0.89911
896	H	0.825063	0.294944	0.931697
897	C	0.734838	0.211595	0.743526
898	H	0.722243	0.227397	0.743885
899	H	0.749146	0.216441	0.775069
900	H	0.714326	0.184186	0.742472
901	C	0.798643	0.317138	0.705969
902	H	0.814679	0.340295	0.685596
903	H	0.81175	0.301837	0.707262
904	H	0.797682	0.325432	0.740222
905	C	0.692127	0.210627	0.968213
906	H	0.66897	0.194591	0.988583
907	H	0.707428	0.197518	0.966917
908	H	0.683835	0.21159	0.93396
909	C	0.70896	0.410478	0.003758
910	C	0.743756	0.429676	0.98817
911	C	0.762598	0.466663	0.987142
912	C	0.746475	0.4855	0.670427
913	C	0.711512	0.466665	0.687043
914	C	0.693367	0.429678	0.686022
915	H	0.668311	0.416399	0.698111
916	C	0.765203	0.022956	0.670424
917	C	0.759224	0.041777	0.96917
918	C	0.777333	0.078756	0.970543
919	C	0.802524	0.097611	0.670424
920	C	0.808857	0.078759	0.703645
921	C	0.790001	0.04178	0.705012
922	H	0.77301	0.09231	0.945824
923	H	0.826751	0.092317	0.728347
924	H	0.755524	0.416394	0.976061
925	C	0.734865	0.025093	0.930649
926	H	0.722281	0.496699	0.930283
927	H	0.749178	0.034565	0.89911
928	H	0.714342	0.031977	0.931697
929	C	0.797691	0.0251	0.743526
930	H	0.781889	0.496704	0.743885
931	H	0.792846	0.034563	0.775069
932	H	0.8251	0.031997	0.742472
933	C	0.692149	0.483362	0.705969
934	H	0.668991	0.476242	0.685596
935	H	0.707451	0.011773	0.707262
936	H	0.683854	0.47411	0.740222
937	C	0.79866	0.483357	0.968213
938	H	0.814697	0.476237	0.988583
939	H	0.811767	0.011767	0.966917
940	H	0.797696	0.474102	0.93396
941	C	0.598809	0.300339	0.003758
942	C	0.579612	0.315939	0.98817
943	C	0.542624	0.297794	0.987142
944	C	0.523789	0.262835	0.670427
945	C	0.542621	0.246706	0.687043
946	C	0.579609	0.265547	0.686022
947	H	0.592888	0.253772	0.698111
948	C	0.986331	0.244105	0.670424
949	C	0.967509	0.219305	0.96917
950	C	0.930531	0.200434	0.970543
951	C	0.911677	0.206771	0.670424
952	C	0.930528	0.231956	0.703645
953	C	0.967505	0.250079	0.705012
954	H	0.916976	0.182557	0.945824
955	H	0.916969	0.236293	0.728347
956	H	0.592895	0.34099	0.976061
957	C	0.984193	0.211628	0.930649
958	H	0.512589	0.227442	0.930283
959	H	0.974722	0.21647	0.89911
960	H	0.977311	0.184223	0.931697
961	C	0.984187	0.27445	0.743526
962	H	0.512583	0.287044	0.743885
963	H	0.974724	0.260141	0.775069
964	H	0.97729	0.294962	0.742472
965	C	0.525923	0.210644	0.705969
966	H	0.533044	0.194608	0.685596
967	H	0.997513	0.197537	0.707262
968	H	0.535177	0.211603	0.740222
969	C	0.52593	0.317159	0.968213
970	H	0.533051	0.340318	0.988583
971	H	0.997519	0.30186	0.966917
972	H	0.535184	0.325453	0.93396
973	C	0.69028	0.873127	0.003753
974	N	0.654709	0.854585	0.003753
975	C	0.636161	0.819014	0.003753
976	N	0.654702	0.801985	0.003753
977	C	0.690275	0.819006	0.003753
978	N	0.707304	0.85458	0.003753
979	C	0.821018	0.634603	0.003757
980	N	0.856566	0.652725	0.003757
981	C	0.874685	0.688275	0.003757
982	N	0.856562	0.705701	0.003757
983	C	0.821012	0.68827	0.003757
984	N	0.803587	0.652722	0.003757
985	C	0.708947	0.800328	0.337092
986	C	0.693347	0.765531	0.321504
987	C	0.711491	0.746689	0.320477
988	C	0.746453	0.762813	0.003761
989	C	0.76258	0.797776	0.020378
990	C	0.74374	0.81592	0.019357
991	H	0.755514	0.840976	0.031443
992	C	0.765182	0.744083	0.003758
993	C	0.789981	0.750062	0.302503
994	C	0.808853	0.731956	0.303877
995	C	0.802516	0.706764	0.003758
996	C	0.777331	0.70043	0.03698
997	C	0.759208	0.719286	0.038347
998	H	0.82673	0.736278	0.279157
999	H	0.772994	0.682537	0.061682
1000	H	0.668297	0.753765	0.309395
1001	C	0.797656	0.774423	0.263982
1002	H	0.781845	0.787005	0.263616
1003	H	0.792817	0.760109	0.232444
1004	H	0.825064	0.794946	0.26503
1005	C	0.734838	0.711596	0.07686
1006	H	0.722243	0.727397	0.07722
1007	H	0.749146	0.716443	0.108402
1008	H	0.714325	0.684188	0.075806
1009	C	0.798643	0.817138	0.039302
1010	H	0.814679	0.840294	0.01893
1011	H	0.81175	0.801836	0.040597
1012	H	0.797682	0.825432	0.073556
1013	C	0.692128	0.710629	0.301547
1014	H	0.668968	0.69459	0.321916
1015	H	0.707429	0.69752	0.300251
1016	H	0.683836	0.711591	0.267293
1017	C	0.708961	0.91048	0.337089
1018	C	0.743756	0.929675	0.321504
1019	C	0.762598	0.966662	0.320477
1020	C	0.746475	0.985499	0.003761
1021	C	0.711513	0.966667	0.020378
1022	C	0.693368	0.92968	0.019357
1023	H	0.668311	0.916398	0.031443
1024	C	0.765204	0.522957	0.003758
1025	C	0.759225	0.541779	0.302503
1026	C	0.77733	0.578756	0.303877
1027	C	0.802524	0.597611	0.003758
1028	C	0.808858	0.578761	0.03698
1029	C	0.790002	0.541782	0.038347
1030	H	0.773011	0.592312	0.279157
1031	H	0.826752	0.592317	0.061682
1032	H	0.755524	0.916393	0.309395
1033	C	0.734862	0.525092	0.263982
1034	H	0.722281	0.996699	0.263616
1035	H	0.749178	0.534567	0.232444
1036	H	0.714342	0.531978	0.26503
1037	C	0.797692	0.5251	0.07686
1038	H	0.781889	0.996704	0.07722
1039	H	0.792845	0.534564	0.108402
1040	H	0.825101	0.531998	0.075806
1041	C	0.692149	0.983365	0.039302
1042	H	0.668993	0.976244	0.01893
1043	H	0.707452	0.511774	0.040597
1044	H	0.683855	0.974112	0.073556
1045	C	0.798659	0.983359	0.301547
1046	H	0.814696	0.976236	0.321916
1047	H	0.811768	0.511769	0.300251
1048	H	0.797697	0.974104	0.267293
1049	C	0.598808	0.800342	0.337092
1050	C	0.579612	0.815941	0.321504
1051	C	0.542625	0.797796	0.320477
1052	C	0.523788	0.762834	0.003761
1053	C	0.542622	0.746707	0.020378
1054	C	0.579608	0.765547	0.019357
1055	H	0.592889	0.753772	0.031444
1056	C	0.986332	0.744107	0.003758
1057	C	0.967509	0.719307	0.302503
1058	C	0.930532	0.700436	0.303877
1059	C	0.911675	0.706772	0.003758
1060	C	0.930526	0.731956	0.03698
1061	C	0.967506	0.75008	0.038347
1062	H	0.916976	0.682557	0.279157
1063	H	0.91697	0.736294	0.061682
1064	H	0.592894	0.840989	0.309395
1065	C	0.984194	0.71163	0.263982
1066	H	0.512588	0.727441	0.263616
1067	H	0.97472	0.716472	0.232444
1068	H	0.977309	0.684225	0.26503
1069	C	0.984188	0.774452	0.07686
1070	H	0.512582	0.787044	0.07722
1071	H	0.974722	0.76014	0.108402
1072	H	0.97729	0.794961	0.075806
1073	C	0.525923	0.710645	0.039302
1074	H	0.533044	0.694609	0.018931
1075	H	0.997514	0.697538	0.040597
1076	H	0.535177	0.711604	0.073556
1077	C	0.525929	0.817161	0.301547
1078	H	0.53305	0.840318	0.321916
1079	H	0.997519	0.80186	0.300251
1080	H	0.535184	0.825453	0.267293
1081	C	0.69028	0.873127	0.337086
1082	N	0.654709	0.854585	0.337086
1083	C	0.636161	0.819014	0.337086
1084	N	0.654702	0.801985	0.337086
1085	C	0.690275	0.819006	0.337086
1086	N	0.707304	0.85458	0.337086
1087	C	0.821018	0.634603	0.337089
1088	N	0.856566	0.652725	0.337089
1089	C	0.874685	0.688275	0.337089
1090	N	0.856562	0.705701	0.337089
1091	C	0.821012	0.68827	0.337089
1092	N	0.803587	0.652722	0.337089
1093	C	0.708947	0.800328	0.670424
1094	C	0.693347	0.765531	0.654839
1095	C	0.711491	0.746689	0.653811
1096	C	0.746453	0.762813	0.337092
1097	C	0.76258	0.797776	0.353712
1098	C	0.74374	0.81592	0.352691
1099	H	0.755514	0.840976	0.364777
1100	C	0.765182	0.744083	0.337092
1101	C	0.789981	0.750062	0.635835
1102	C	0.808853	0.731956	0.637212
1103	C	0.802516	0.706764	0.337092
1104	C	0.777331	0.70043	0.370314
1105	C	0.759208	0.719286	0.371681
1106	H	0.82673	0.736278	0.61249
1107	H	0.772994	0.682537	0.395016
1108	H	0.668297	0.753765	0.642729
1109	C	0.797656	0.774423	0.597315
1110	H	0.781845	0.787005	0.596949
1111	H	0.792817	0.760109	0.565779
1112	H	0.825064	0.794946	0.598362
1113	C	0.734838	0.711596	0.410191
1114	H	0.722243	0.727397	0.410554
1115	H	0.749146	0.716443	0.441734
1116	H	0.714325	0.684188	0.40914
1117	C	0.798643	0.817138	0.372634
1118	H	0.814679	0.840294	0.352264
1119	H	0.81175	0.801836	0.373931
1120	H	0.797682	0.825432	0.40689
1121	C	0.692128	0.710629	0.634882
1122	H	0.668968	0.69459	0.655248
1123	H	0.707429	0.69752	0.633585
1124	H	0.683836	0.711591	0.600626
1125	C	0.708961	0.91048	0.670424
1126	C	0.743756	0.929675	0.654839
1127	C	0.762598	0.966662	0.653811
1128	C	0.746475	0.985499	0.337092
1129	C	0.711513	0.966667	0.353712
1130	C	0.693368	0.92968	0.352691
1131	H	0.668311	0.916398	0.364777
1132	C	0.765204	0.522957	0.337092
1133	C	0.759225	0.541779	0.635835
1134	C	0.77733	0.578756	0.637212
1135	C	0.802524	0.597611	0.337092
1136	C	0.808858	0.578761	0.370314
1137	C	0.790002	0.541782	0.371681
1138	H	0.773011	0.592312	0.61249
1139	H	0.826752	0.592317	0.395016
1140	H	0.755524	0.916393	0.642729
1141	C	0.734862	0.525092	0.597315
1142	H	0.722281	0.996699	0.596949
1143	H	0.749178	0.534567	0.565779
1144	H	0.714342	0.531978	0.598362
1145	C	0.797692	0.5251	0.410191
1146	H	0.781889	0.996704	0.410554
1147	H	0.792845	0.534564	0.441734
1148	H	0.825101	0.531998	0.40914
1149	C	0.692149	0.983365	0.372634
1150	H	0.668993	0.976244	0.352264
1151	H	0.707452	0.511774	0.373931
1152	H	0.683855	0.974112	0.40689
1153	C	0.798659	0.983359	0.634882
1154	H	0.814696	0.976236	0.655248
1155	H	0.811768	0.511769	0.633585
1156	H	0.797697	0.974104	0.600626
1157	C	0.598808	0.800342	0.670424
1158	C	0.579612	0.815941	0.654839
1159	C	0.542625	0.797796	0.653808
1160	C	0.523788	0.762834	0.337092
1161	C	0.542622	0.746707	0.353712
1162	C	0.579608	0.765547	0.352691
1163	H	0.592889	0.753772	0.364777
1164	C	0.986332	0.744107	0.337092
1165	C	0.967509	0.719307	0.635835
1166	C	0.930532	0.700436	0.637212
1167	C	0.911675	0.706772	0.337092
1168	C	0.930526	0.731956	0.370314
1169	C	0.967506	0.75008	0.371681
1170	H	0.916976	0.682557	0.61249
1171	H	0.91697	0.736294	0.395016
1172	H	0.592894	0.840989	0.642726
1173	C	0.984194	0.71163	0.597315
1174	H	0.512588	0.727441	0.596949
1175	H	0.97472	0.716472	0.565779
1176	H	0.977309	0.684225	0.598362
1177	C	0.984188	0.774452	0.410191
1178	H	0.512582	0.787044	0.410554
1179	H	0.974722	0.76014	0.441734
1180	H	0.97729	0.794961	0.40914
1181	C	0.525923	0.710645	0.372634
1182	H	0.533044	0.694609	0.352264
1183	H	0.997514	0.697538	0.373931
1184	H	0.535177	0.711604	0.40689
1185	C	0.525929	0.817161	0.634882
1186	H	0.53305	0.840318	0.655248
1187	H	0.997519	0.80186	0.633585
1188	H	0.535184	0.825453	0.600626
1189	C	0.69028	0.873127	0.67042
1190	N	0.654709	0.854585	0.67042
1191	C	0.636161	0.819014	0.67042
1192	N	0.654702	0.801985	0.67042
1193	C	0.690275	0.819006	0.67042
1194	N	0.707304	0.85458	0.67042
1195	C	0.821018	0.634603	0.670424
1196	N	0.856566	0.652725	0.670424
1197	C	0.874685	0.688275	0.670424
1198	N	0.856562	0.705701	0.670424
1199	C	0.821012	0.68827	0.670424
1200	N	0.803587	0.652722	0.670424
1201	C	0.708947	0.800328	0.003758
1202	C	0.693347	0.765531	0.98817
1203	C	0.711491	0.746689	0.987142
1204	C	0.746453	0.762813	0.670427
1205	C	0.76258	0.797776	0.687043
1206	C	0.74374	0.81592	0.686022
1207	H	0.755514	0.840976	0.698111
1208	C	0.765182	0.744083	0.670424
1209	C	0.789981	0.750062	0.96917
1210	C	0.808853	0.731956	0.970543
1211	C	0.802516	0.706764	0.670424
1212	C	0.777331	0.70043	0.703645
1213	C	0.759208	0.719286	0.705012
1214	H	0.82673	0.736278	0.945824
1215	H	0.772994	0.682537	0.728347
1216	H	0.668297	0.753765	0.976061
1217	C	0.797656	0.774423	0.930649
1218	H	0.781845	0.787005	0.930283
1219	H	0.792817	0.760109	0.89911
1220	H	0.825064	0.794946	0.931697
1221	C	0.734838	0.711596	0.743526
1222	H	0.722243	0.727397	0.743885
1223	H	0.749146	0.716443	0.775069
1224	H	0.714325	0.684188	0.742472
1225	C	0.798643	0.817138	0.705969
1226	H	0.814679	0.840294	0.685596
1227	H	0.81175	0.801836	0.707262
1228	H	0.797682	0.825432	0.740222
1229	C	0.692128	0.710629	0.968213
1230	H	0.668968	0.69459	0.988583
1231	H	0.707429	0.69752	0.966917
1232	H	0.683836	0.711591	0.93396
1233	C	0.708961	0.91048	0.003758
1234	C	0.743756	0.929675	0.98817
1235	C	0.762598	0.966662	0.987142
1236	C	0.746475	0.985499	0.670427
1237	C	0.711513	0.966667	0.687043
1238	C	0.693368	0.92968	0.686022
1239	H	0.668311	0.916398	0.698111
1240	C	0.765204	0.522957	0.670424
1241	C	0.759225	0.541779	0.96917
1242	C	0.77733	0.578756	0.970543
1243	C	0.802524	0.597611	0.670424
1244	C	0.808858	0.578761	0.703645
1245	C	0.790002	0.541782	0.705012
1246	H	0.773011	0.592312	0.945824
1247	H	0.826752	0.592317	0.728347
1248	H	0.755524	0.916393	0.976061
1249	C	0.734862	0.525092	0.930649
1250	H	0.722281	0.996699	0.930283
1251	H	0.749178	0.534567	0.89911
1252	H	0.714342	0.531978	0.931697
1253	C	0.797692	0.5251	0.743526
1254	H	0.781889	0.996704	0.743885
1255	H	0.792845	0.534564	0.775069
1256	H	0.825101	0.531998	0.742472
1257	C	0.692149	0.983365	0.705969
1258	H	0.668993	0.976244	0.685596
1259	H	0.707452	0.511774	0.707262
1260	H	0.683855	0.974112	0.740222
1261	C	0.798659	0.983359	0.968213
1262	H	0.814696	0.976236	0.988583
1263	H	0.811768	0.511769	0.966917
1264	H	0.797697	0.974104	0.93396
1265	C	0.598808	0.800342	0.003758
1266	C	0.579612	0.815941	0.98817
1267	C	0.542625	0.797796	0.987142
1268	C	0.523788	0.762834	0.670427
1269	C	0.542622	0.746707	0.687043
1270	C	0.579608	0.765547	0.686022
1271	H	0.592889	0.753772	0.698111
1272	C	0.986332	0.744107	0.670424
1273	C	0.967509	0.719307	0.96917
1274	C	0.930532	0.700436	0.970543
1275	C	0.911675	0.706772	0.670424
1276	C	0.930526	0.731956	0.703645
1277	C	0.967506	0.75008	0.705012
1278	H	0.916976	0.682557	0.945824
1279	H	0.91697	0.736294	0.728347
1280	H	0.592894	0.840989	0.976061
1281	C	0.984194	0.71163	0.930649
1282	H	0.512588	0.727441	0.930283
1283	H	0.97472	0.716472	0.89911
1284	H	0.977309	0.684225	0.931697
1285	C	0.984188	0.774452	0.743526
1286	H	0.512582	0.787044	0.743885
1287	H	0.974722	0.76014	0.775069
1288	H	0.97729	0.794961	0.742472
1289	C	0.525923	0.710645	0.705969
1290	H	0.533044	0.694609	0.685596
1291	H	0.997514	0.697538	0.707262
1292	H	0.535177	0.711604	0.740222
1293	C	0.525929	0.817161	0.968213
1294	H	0.53305	0.840318	0.988583
1295	H	0.997519	0.80186	0.966917
1296	H	0.535184	0.825453	0.93396
