data_C720H720N288_2018-02-15_10:38:45
#******************************************
#
# CIF file created by Zeo++
# Zeo++ is an open source package to
# analyze microporous materials
#
#*******************************************

_cell_length_a		45.7212   
_cell_length_b		45.7424   
_cell_length_c		29.626   
_cell_angle_alpha		90   
_cell_angle_beta		90   
_cell_angle_gamma		119.989   

_symmetry_space_group_name_H-M		'P1'
_symmetry_Int_Tables_number		1
_symmetry_cell_setting		Monoclinic

loop_
_symmetry_equiv_pos_as_xyz
'+x,+y,+z'

loop_
_atom_site_label
_atom_site_type_symbol
_atom_site_fract_x
_atom_site_fract_y
_atom_site_fract_z
1	C	0.043034	0.022973	0.005581
2	C	0.024611	0.040388	0.005581
3	C	0.024626	0.487152	0.005578
4	H	0.037559	0.474226	0.005649
5	H	0.037537	0.066238	0.005649
6	C	0.079699	0.041284	0.339105
7	C	0.097877	0.050458	0.297262
8	C	0.097621	0.050329	0.047813
9	N	0.079867	0.041626	0.2576
10	H	0.055405	0.029344	0.256744
11	H	0.090107	0.047341	0.228105
12	N	0.079372	0.041378	0.087282
13	H	0.054905	0.029088	0.087879
14	H	0.089432	0.046992	0.116884
15	C	0.043034	0.022973	0.338916
16	C	0.024611	0.040388	0.338916
17	C	0.024626	0.487152	0.338912
18	H	0.037559	0.474226	0.338983
19	H	0.037537	0.066238	0.338983
20	C	0.079699	0.041284	0.672437
21	C	0.097877	0.050458	0.630596
22	C	0.097621	0.050329	0.381146
23	N	0.079867	0.041626	0.590931
24	H	0.055405	0.029344	0.590077
25	H	0.090107	0.047341	0.561437
26	N	0.079372	0.041378	0.420614
27	H	0.054905	0.029088	0.421212
28	H	0.089432	0.046992	0.450217
29	C	0.043034	0.022973	0.672248
30	C	0.024611	0.040388	0.672248
31	C	0.024626	0.487152	0.672245
32	H	0.037559	0.474226	0.672316
33	H	0.037537	0.066238	0.672316
34	C	0.079699	0.041284	0.00577
35	C	0.097877	0.050458	0.963928
36	C	0.097621	0.050329	0.714478
37	N	0.079867	0.041626	0.924264
38	H	0.055405	0.029344	0.92341
39	H	0.090107	0.047341	0.89477
40	N	0.079372	0.041378	0.753947
41	H	0.054905	0.029088	0.754545
42	H	0.089432	0.046992	0.783549
43	C	0.043035	0.522973	0.005581
44	C	0.024611	0.540389	0.005581
45	C	0.024627	0.987153	0.005578
46	H	0.03756	0.974225	0.005649
47	H	0.037537	0.566239	0.005649
48	C	0.0797	0.541285	0.339105
49	C	0.097877	0.550458	0.297262
50	C	0.097621	0.550329	0.047813
51	N	0.079867	0.541626	0.2576
52	H	0.055405	0.529344	0.256744
53	H	0.090107	0.547341	0.228105
54	N	0.079372	0.541379	0.087282
55	H	0.054906	0.529089	0.087879
56	H	0.089432	0.546992	0.116884
57	C	0.043035	0.522973	0.338916
58	C	0.024611	0.540389	0.338916
59	C	0.024627	0.987153	0.338912
60	H	0.03756	0.974225	0.338983
61	H	0.037537	0.566239	0.338983
62	C	0.0797	0.541285	0.672437
63	C	0.097877	0.550458	0.630596
64	C	0.097621	0.550329	0.381146
65	N	0.079867	0.541626	0.590931
66	H	0.055405	0.529344	0.590077
67	H	0.090107	0.547341	0.561437
68	N	0.079372	0.541379	0.420614
69	H	0.054906	0.529089	0.421212
70	H	0.089432	0.546992	0.450217
71	C	0.043035	0.522973	0.672248
72	C	0.024611	0.540389	0.672248
73	C	0.024627	0.987153	0.672245
74	H	0.03756	0.974225	0.672316
75	H	0.037537	0.566239	0.672316
76	C	0.0797	0.541285	0.00577
77	C	0.097877	0.550458	0.963928
78	C	0.097621	0.550329	0.714478
79	N	0.079867	0.541626	0.924264
80	H	0.055405	0.529344	0.92341
81	H	0.090107	0.547341	0.89477
82	N	0.079372	0.541379	0.753947
83	H	0.054906	0.529089	0.754545
84	H	0.089432	0.546992	0.783549
85	C	0.207192	0.131907	0.006468
86	C	0.188803	0.096017	0.006374
87	C	0.207227	0.078534	0.006468
88	H	0.194425	0.144986	0.006404
89	H	0.194485	0.0527	0.006403
90	C	0.134229	0.068657	0.297461
91	C	0.152148	0.077702	0.339503
92	C	0.133972	0.068528	0.048014
93	N	0.152481	0.07761	0.257996
94	H	0.142422	0.071984	0.228392
95	H	0.176949	0.089894	0.257405
96	N	0.151982	0.07736	0.087678
97	H	0.176445	0.089647	0.088537
98	H	0.141743	0.071656	0.117171
99	C	0.207192	0.131907	0.3398
100	C	0.188803	0.096017	0.339706
101	C	0.207227	0.078534	0.3398
102	H	0.194425	0.144986	0.339736
103	H	0.194485	0.0527	0.339736
104	C	0.134229	0.068657	0.630795
105	C	0.152148	0.077702	0.672836
106	C	0.133972	0.068528	0.381348
107	N	0.152481	0.07761	0.59133
108	H	0.142422	0.071984	0.561724
109	H	0.176949	0.089894	0.590739
110	N	0.151982	0.07736	0.421009
111	H	0.176445	0.089647	0.42187
112	H	0.141743	0.071656	0.450504
113	C	0.207192	0.131907	0.673133
114	C	0.188803	0.096017	0.673038
115	C	0.207227	0.078534	0.673133
116	H	0.194425	0.144986	0.673069
117	H	0.194485	0.0527	0.673069
118	C	0.134229	0.068657	0.964128
119	C	0.152148	0.077702	0.006168
120	C	0.133972	0.068528	0.714681
121	N	0.152481	0.07761	0.924662
122	H	0.142422	0.071984	0.895056
123	H	0.176949	0.089894	0.924072
124	N	0.151982	0.07736	0.754342
125	H	0.176445	0.089647	0.755203
126	H	0.141743	0.071656	0.783836
127	C	0.207192	0.631907	0.006468
128	C	0.188803	0.596018	0.006374
129	C	0.207227	0.578533	0.006468
130	H	0.194425	0.644985	0.006404
131	H	0.194485	0.552699	0.006403
132	C	0.134229	0.568657	0.297461
133	C	0.152149	0.577703	0.339503
134	C	0.133972	0.568528	0.048014
135	N	0.152481	0.577609	0.257996
136	H	0.142421	0.571983	0.228392
137	H	0.176949	0.589894	0.257405
138	N	0.151982	0.57736	0.087678
139	H	0.176445	0.589647	0.088537
140	H	0.141743	0.571655	0.117171
141	C	0.207192	0.631907	0.3398
142	C	0.188803	0.596018	0.339706
143	C	0.207227	0.578533	0.3398
144	H	0.194425	0.644985	0.339736
145	H	0.194485	0.552699	0.339736
146	C	0.134229	0.568657	0.630795
147	C	0.152149	0.577703	0.672836
148	C	0.133972	0.568528	0.381348
149	N	0.152481	0.577609	0.59133
150	H	0.142421	0.571983	0.561724
151	H	0.176949	0.589894	0.590739
152	N	0.151982	0.57736	0.421009
153	H	0.176445	0.589647	0.42187
154	H	0.141743	0.571655	0.450504
155	C	0.207192	0.631907	0.673133
156	C	0.188803	0.596018	0.673038
157	C	0.207227	0.578533	0.673133
158	H	0.194425	0.644985	0.673069
159	H	0.194485	0.552699	0.673069
160	C	0.134229	0.568657	0.964128
161	C	0.152149	0.577703	0.006168
162	C	0.133972	0.568528	0.714681
163	N	0.152481	0.577609	0.924662
164	H	0.142421	0.571983	0.895056
165	H	0.176949	0.589894	0.924072
166	N	0.151982	0.57736	0.754342
167	H	0.176445	0.589647	0.755203
168	H	0.141743	0.571655	0.783836
169	C	0.243051	0.096174	0.006606
170	C	0.260306	0.131772	0.006675
171	C	0.243013	0.150094	0.006603
172	H	0.286241	0.144746	0.006769
173	C	0.277904	0.078278	0.048563
174	C	0.263577	0.080422	0.006669
175	C	0.277845	0.07819	0.298095
176	N	0.261564	0.077477	0.087764
177	H	0.269458	0.075895	0.117371
178	H	0.239463	0.075614	0.087581
179	N	0.261417	0.077224	0.258902
180	H	0.239314	0.075348	0.259089
181	H	0.269227	0.075459	0.229318
182	C	0.26348	0.186373	0.006672
183	C	0.277839	0.202737	0.048597
184	C	0.277805	0.202765	0.298074
185	N	0.261552	0.18716	0.0878
186	H	0.239474	0.166906	0.087669
187	H	0.269699	0.196362	0.117455
188	N	0.26143	0.18728	0.258872
189	H	0.239289	0.167111	0.259049
190	H	0.269378	0.19668	0.22925
191	C	0.243051	0.096174	0.339938
192	C	0.260306	0.131772	0.340009
193	C	0.243013	0.150094	0.339935
194	H	0.286241	0.144746	0.3401
195	C	0.277904	0.078278	0.381895
196	C	0.263577	0.080422	0.340003
197	C	0.277845	0.07819	0.631426
198	N	0.261564	0.077477	0.421097
199	H	0.269458	0.075895	0.450703
200	H	0.239463	0.075614	0.420915
201	N	0.261417	0.077224	0.592234
202	H	0.239314	0.075348	0.592423
203	H	0.269227	0.075459	0.562652
204	C	0.26348	0.186373	0.340006
205	C	0.277839	0.202737	0.381929
206	C	0.277805	0.202765	0.631406
207	N	0.261552	0.18716	0.421134
208	H	0.239474	0.166906	0.421002
209	H	0.269699	0.196362	0.450787
210	N	0.26143	0.18728	0.592204
211	H	0.239289	0.167111	0.592383
212	H	0.269378	0.19668	0.562584
213	C	0.243051	0.096174	0.673271
214	C	0.260306	0.131772	0.673342
215	C	0.243013	0.150094	0.673268
216	H	0.286241	0.144746	0.673433
217	C	0.277904	0.078278	0.715228
218	C	0.263577	0.080422	0.673335
219	C	0.277845	0.07819	0.964759
220	N	0.261564	0.077477	0.75443
221	H	0.269458	0.075895	0.784036
222	H	0.239463	0.075614	0.754247
223	N	0.261417	0.077224	0.925567
224	H	0.239314	0.075348	0.925756
225	H	0.269227	0.075459	0.895985
226	C	0.26348	0.186373	0.673339
227	C	0.277839	0.202737	0.715261
228	C	0.277805	0.202765	0.964739
229	N	0.261552	0.18716	0.754467
230	H	0.239474	0.166906	0.754335
231	H	0.269699	0.196362	0.78412
232	N	0.26143	0.18728	0.925536
233	H	0.239289	0.167111	0.925715
234	H	0.269378	0.19668	0.895917
235	C	0.243051	0.596174	0.006606
236	C	0.260307	0.631774	0.006675
237	C	0.243013	0.650093	0.006603
238	H	0.286241	0.644745	0.006769
239	C	0.277905	0.578278	0.048563
240	C	0.263576	0.580421	0.006669
241	C	0.277845	0.57819	0.298095
242	N	0.261565	0.577478	0.087764
243	H	0.269459	0.575896	0.117371
244	H	0.239464	0.575615	0.087581
245	N	0.261418	0.577223	0.258902
246	H	0.239314	0.575348	0.259089
247	H	0.269226	0.575459	0.229318
248	C	0.26348	0.686374	0.006672
249	C	0.277839	0.702735	0.048597
250	C	0.277806	0.702766	0.298074
251	N	0.261551	0.687159	0.0878
252	H	0.239474	0.666906	0.087669
253	H	0.269699	0.696362	0.117455
254	N	0.26143	0.687281	0.258872
255	H	0.239289	0.667111	0.259049
256	H	0.269378	0.69668	0.22925
257	C	0.243051	0.596174	0.339938
258	C	0.260307	0.631774	0.340009
259	C	0.243013	0.650093	0.339935
260	H	0.286241	0.644745	0.3401
261	C	0.277905	0.578278	0.381895
262	C	0.263576	0.580421	0.340003
263	C	0.277845	0.57819	0.631426
264	N	0.261565	0.577478	0.421097
265	H	0.269459	0.575896	0.450703
266	H	0.239464	0.575615	0.420915
267	N	0.261418	0.577223	0.592234
268	H	0.239314	0.575348	0.592423
269	H	0.269226	0.575459	0.562652
270	C	0.26348	0.686374	0.340006
271	C	0.277839	0.702735	0.381929
272	C	0.277806	0.702766	0.631406
273	N	0.261551	0.687159	0.421134
274	H	0.239474	0.666906	0.421002
275	H	0.269699	0.696362	0.450787
276	N	0.26143	0.687281	0.592204
277	H	0.239289	0.667111	0.592383
278	H	0.269378	0.69668	0.562584
279	C	0.243051	0.596174	0.673271
280	C	0.260307	0.631774	0.673342
281	C	0.243013	0.650093	0.673268
282	H	0.286241	0.644745	0.673433
283	C	0.277905	0.578278	0.715228
284	C	0.263576	0.580421	0.673335
285	C	0.277845	0.57819	0.964759
286	N	0.261565	0.577478	0.75443
287	H	0.269459	0.575896	0.784036
288	H	0.239464	0.575615	0.754247
289	N	0.261418	0.577223	0.925567
290	H	0.239314	0.575348	0.925756
291	H	0.269226	0.575459	0.895985
292	C	0.26348	0.686374	0.673339
293	C	0.277839	0.702735	0.715261
294	C	0.277806	0.702766	0.964739
295	N	0.261551	0.687159	0.754467
296	H	0.239474	0.666906	0.754335
297	H	0.269699	0.696362	0.78412
298	N	0.26143	0.687281	0.925536
299	H	0.239289	0.667111	0.925715
300	H	0.269378	0.69668	0.895917
301	C	0.488769	0.022971	0.005585
302	C	0.471353	0.487152	0.005585
303	C	0.488789	0.468751	0.005581
304	H	0.445491	0.474223	0.005652
305	C	0.415814	0.150017	0.006655
306	C	0.380198	0.131651	0.006727
307	C	0.361892	0.096049	0.006656
308	C	0.380117	0.078457	0.00649
309	C	0.416027	0.095985	0.006394
310	C	0.43349	0.131873	0.006482
311	H	0.367056	0.052622	0.006403
312	H	0.459337	0.144983	0.006387
313	H	0.367202	0.144589	0.006801
314	C	0.361862	0.268867	0.006644
315	C	0.38021	0.251598	0.006712
316	C	0.415827	0.268865	0.006627
317	C	0.433458	0.304669	0.006468
318	C	0.415951	0.323067	0.006384
319	C	0.380044	0.304671	0.006486
320	H	0.459304	0.317418	0.006382
321	H	0.366949	0.317423	0.006414
322	H	0.367245	0.225676	0.006798
323	C	0.470417	0.041281	0.339111
324	C	0.461418	0.050459	0.297269
325	C	0.44327	0.068661	0.297472
326	C	0.434401	0.077706	0.339517
327	C	0.443394	0.068524	0.048024
328	C	0.461552	0.050333	0.04782
329	N	0.433963	0.077609	0.258009
330	H	0.43838	0.071968	0.228404
331	H	0.421794	0.089905	0.257421
332	N	0.470599	0.041636	0.257605
333	H	0.48277	0.029345	0.256746
334	H	0.466089	0.047366	0.228112
335	N	0.434191	0.077325	0.087691
336	H	0.422024	0.08962	0.088555
337	H	0.438647	0.07154	0.117179
338	N	0.470876	0.041408	0.087288
339	H	0.483058	0.029124	0.087883
340	H	0.466518	0.047109	0.116887
341	C	0.470463	0.432107	0.339108
342	C	0.461385	0.413941	0.297262
343	C	0.443218	0.377607	0.297464
344	C	0.43427	0.359701	0.33951
345	C	0.443347	0.377864	0.048022
346	C	0.461512	0.414198	0.047821
347	N	0.434078	0.359355	0.258001
348	H	0.439067	0.369406	0.228381
349	H	0.421854	0.334902	0.257417
350	N	0.470397	0.431945	0.257601
351	H	0.482621	0.456398	0.256749
352	H	0.465319	0.421715	0.228092
353	N	0.434337	0.35986	0.087686
354	H	0.422116	0.335409	0.088542
355	H	0.439425	0.370093	0.117194
356	N	0.470643	0.432445	0.087286
357	H	0.482866	0.456901	0.087876
358	H	0.465644	0.422396	0.116904
359	C	0.325587	0.080207	0.006637
360	C	0.309227	0.078221	0.04857
361	C	0.309187	0.078172	0.298064
362	N	0.324797	0.077495	0.08778
363	H	0.345024	0.075615	0.087658
364	H	0.315656	0.076575	0.117443
365	N	0.324769	0.077492	0.258845
366	H	0.345026	0.075663	0.258945
367	H	0.315682	0.076684	0.229179
368	C	0.431653	0.248394	0.006632
369	C	0.433614	0.234008	0.048565
370	C	0.433621	0.202675	0.04855
371	C	0.431573	0.186284	0.006614
372	C	0.433731	0.202742	0.298052
373	C	0.433769	0.234094	0.29805
374	N	0.434434	0.187151	0.087755
375	H	0.435883	0.196557	0.117372
376	H	0.436383	0.166971	0.08758
377	N	0.43429	0.250269	0.087781
378	H	0.436212	0.272386	0.087641
379	H	0.435344	0.24212	0.117435
380	N	0.434561	0.18723	0.25885
381	H	0.436336	0.166951	0.258983
382	H	0.435857	0.196554	0.229214
383	N	0.434607	0.250444	0.258852
384	H	0.436442	0.272522	0.258993
385	H	0.435805	0.24237	0.229207
386	C	0.309173	0.234073	0.048594
387	C	0.325565	0.248402	0.006673
388	C	0.309182	0.234064	0.29807
389	N	0.324704	0.250408	0.087792
390	H	0.315372	0.242395	0.11743
391	H	0.344944	0.272494	0.087635
392	N	0.324751	0.250337	0.258854
393	H	0.345017	0.272398	0.258961
394	H	0.315562	0.242167	0.229201
395	C	0.488769	0.022971	0.338919
396	C	0.471353	0.487152	0.338919
397	C	0.488789	0.468751	0.338916
398	H	0.445491	0.474223	0.338987
399	C	0.415814	0.150017	0.339989
400	C	0.380198	0.131651	0.34006
401	C	0.361892	0.096049	0.339989
402	C	0.380117	0.078457	0.339824
403	C	0.416027	0.095985	0.339726
404	C	0.43349	0.131873	0.339814
405	H	0.367056	0.052622	0.339736
406	H	0.459337	0.144983	0.339719
407	H	0.367202	0.144589	0.340134
408	C	0.361862	0.268867	0.339976
409	C	0.38021	0.251598	0.340043
410	C	0.415827	0.268865	0.339959
411	C	0.433458	0.304669	0.3398
412	C	0.415951	0.323067	0.339716
413	C	0.380044	0.304671	0.33982
414	H	0.459304	0.317418	0.339716
415	H	0.366949	0.317423	0.339746
416	H	0.367245	0.225676	0.340131
417	C	0.470417	0.041281	0.672444
418	C	0.461418	0.050459	0.630602
419	C	0.44327	0.068661	0.630805
420	C	0.434401	0.077706	0.672849
421	C	0.443394	0.068524	0.381358
422	C	0.461552	0.050333	0.381152
423	N	0.433963	0.077609	0.591343
424	H	0.43838	0.071968	0.561737
425	H	0.421794	0.089905	0.590752
426	N	0.470599	0.041636	0.590938
427	H	0.48277	0.029345	0.590077
428	H	0.466089	0.047366	0.561444
429	N	0.434191	0.077325	0.421023
430	H	0.422024	0.08962	0.421887
431	H	0.438647	0.07154	0.450514
432	N	0.470876	0.041408	0.420621
433	H	0.483058	0.029124	0.421215
434	H	0.466518	0.047109	0.45022
435	C	0.470463	0.432107	0.672441
436	C	0.461385	0.413941	0.630596
437	C	0.443218	0.377607	0.630795
438	C	0.43427	0.359701	0.672842
439	C	0.443347	0.377864	0.381355
440	C	0.461512	0.414198	0.381152
441	N	0.434078	0.359355	0.591333
442	H	0.439067	0.369406	0.561714
443	H	0.421854	0.334902	0.590749
444	N	0.470397	0.431945	0.590935
445	H	0.482621	0.456398	0.590081
446	H	0.465319	0.421715	0.561423
447	N	0.434337	0.35986	0.421019
448	H	0.422116	0.335409	0.421873
449	H	0.439425	0.370093	0.450527
450	N	0.470643	0.432445	0.420618
451	H	0.482866	0.456901	0.421208
452	H	0.465644	0.422396	0.450237
453	C	0.325587	0.080207	0.339969
454	C	0.309227	0.078221	0.381902
455	C	0.309187	0.078172	0.631396
456	N	0.324797	0.077495	0.421114
457	H	0.345024	0.075615	0.420989
458	H	0.315656	0.076575	0.450777
459	N	0.324769	0.077492	0.592177
460	H	0.345026	0.075663	0.592278
461	H	0.315682	0.076684	0.562514
462	C	0.431653	0.248394	0.339965
463	C	0.433614	0.234008	0.381898
464	C	0.433621	0.202675	0.381881
465	C	0.431573	0.186284	0.339945
466	C	0.433731	0.202742	0.631386
467	C	0.433769	0.234094	0.631382
468	N	0.434434	0.187151	0.421087
469	H	0.435883	0.196557	0.450706
470	H	0.436383	0.166971	0.420911
471	N	0.43429	0.250269	0.421114
472	H	0.436212	0.272386	0.420975
473	H	0.435344	0.24212	0.450767
474	N	0.434561	0.18723	0.592183
475	H	0.436336	0.166951	0.592315
476	H	0.435857	0.196554	0.562547
477	N	0.434607	0.250444	0.592183
478	H	0.436442	0.272522	0.592325
479	H	0.435805	0.24237	0.562541
480	C	0.309173	0.234073	0.381925
481	C	0.325565	0.248402	0.340006
482	C	0.309182	0.234064	0.631402
483	N	0.324704	0.250408	0.421124
484	H	0.315372	0.242395	0.450764
485	H	0.344944	0.272494	0.420969
486	N	0.324751	0.250337	0.592187
487	H	0.345017	0.272398	0.592295
488	H	0.315562	0.242167	0.562534
489	C	0.488769	0.022971	0.672252
490	C	0.471353	0.487152	0.672252
491	C	0.488789	0.468751	0.672248
492	H	0.445491	0.474223	0.672319
493	C	0.415814	0.150017	0.673322
494	C	0.380198	0.131651	0.673393
495	C	0.361892	0.096049	0.673322
496	C	0.380117	0.078457	0.673156
497	C	0.416027	0.095985	0.673059
498	C	0.43349	0.131873	0.673146
499	H	0.367056	0.052622	0.673069
500	H	0.459337	0.144983	0.673052
501	H	0.367202	0.144589	0.673467
502	C	0.361862	0.268867	0.673308
503	C	0.38021	0.251598	0.673376
504	C	0.415827	0.268865	0.673291
505	C	0.433458	0.304669	0.673133
506	C	0.415951	0.323067	0.673048
507	C	0.380044	0.304671	0.673153
508	H	0.459304	0.317418	0.673048
509	H	0.366949	0.317423	0.673079
510	H	0.367245	0.225676	0.673464
511	C	0.470417	0.041281	0.005777
512	C	0.461418	0.050459	0.963935
513	C	0.44327	0.068661	0.964138
514	C	0.434401	0.077706	0.006182
515	C	0.443394	0.068524	0.714691
516	C	0.461552	0.050333	0.714485
517	N	0.433963	0.077609	0.924676
518	H	0.43838	0.071968	0.89507
519	H	0.421794	0.089905	0.924085
520	N	0.470599	0.041636	0.924271
521	H	0.48277	0.029345	0.92341
522	H	0.466089	0.047366	0.89478
523	N	0.434191	0.077325	0.754355
524	H	0.422024	0.08962	0.75522
525	H	0.438647	0.07154	0.783847
526	N	0.470876	0.041408	0.753954
527	H	0.483058	0.029124	0.754548
528	H	0.466518	0.047109	0.783553
529	C	0.470463	0.432107	0.005774
530	C	0.461385	0.413941	0.963928
531	C	0.443218	0.377607	0.964128
532	C	0.43427	0.359701	0.006175
533	C	0.443347	0.377864	0.714688
534	C	0.461512	0.414198	0.714485
535	N	0.434078	0.359355	0.924666
536	H	0.439067	0.369406	0.895046
537	H	0.421854	0.334902	0.924082
538	N	0.470397	0.431945	0.924267
539	H	0.482621	0.456398	0.923413
540	H	0.465319	0.421715	0.894756
541	N	0.434337	0.35986	0.754352
542	H	0.422116	0.335409	0.755206
543	H	0.439425	0.370093	0.78386
544	N	0.470643	0.432445	0.75395
545	H	0.482866	0.456901	0.754541
546	H	0.465644	0.422396	0.78357
547	C	0.325587	0.080207	0.673302
548	C	0.309227	0.078221	0.715234
549	C	0.309187	0.078172	0.964728
550	N	0.324797	0.077495	0.754447
551	H	0.345024	0.075615	0.754322
552	H	0.315656	0.076575	0.78411
553	N	0.324769	0.077492	0.925509
554	H	0.345026	0.075663	0.925611
555	H	0.315682	0.076684	0.895846
556	C	0.431653	0.248394	0.673298
557	C	0.433614	0.234008	0.715231
558	C	0.433621	0.202675	0.715214
559	C	0.431573	0.186284	0.673278
560	C	0.433731	0.202742	0.964718
561	C	0.433769	0.234094	0.964715
562	N	0.434434	0.187151	0.75442
563	H	0.435883	0.196557	0.784039
564	H	0.436383	0.166971	0.754244
565	N	0.43429	0.250269	0.754447
566	H	0.436212	0.272386	0.754308
567	H	0.435344	0.24212	0.7841
568	N	0.434561	0.18723	0.925516
569	H	0.436336	0.166951	0.925648
570	H	0.435857	0.196554	0.89588
571	N	0.434607	0.250444	0.92552
572	H	0.436442	0.272522	0.925658
573	H	0.435805	0.24237	0.895873
574	C	0.309173	0.234073	0.715258
575	C	0.325565	0.248402	0.673339
576	C	0.309182	0.234064	0.964735
577	N	0.324704	0.250408	0.754457
578	H	0.315372	0.242395	0.784096
579	H	0.344944	0.272494	0.754301
580	N	0.324751	0.250337	0.92552
581	H	0.345017	0.272398	0.925628
582	H	0.315562	0.242167	0.895867
583	C	0.488769	0.522971	0.005585
584	C	0.471354	0.987151	0.005585
585	C	0.488788	0.96875	0.005581
586	H	0.445492	0.974225	0.005652
587	C	0.415815	0.650018	0.006655
588	C	0.380199	0.631652	0.006727
589	C	0.361892	0.59605	0.006656
590	C	0.380118	0.578458	0.00649
591	C	0.416028	0.595985	0.006394
592	C	0.433491	0.631875	0.006482
593	H	0.367055	0.552621	0.006403
594	H	0.459337	0.644982	0.006387
595	H	0.367203	0.644588	0.006801
596	C	0.361862	0.768866	0.006644
597	C	0.380209	0.751599	0.006712
598	C	0.415827	0.768864	0.006627
599	C	0.433457	0.804668	0.006468
600	C	0.41595	0.823066	0.006384
601	C	0.380044	0.804673	0.006486
602	H	0.459304	0.817417	0.006382
603	H	0.366949	0.817422	0.006414
604	H	0.367245	0.725677	0.006798
605	C	0.470417	0.54128	0.339111
606	C	0.461418	0.550461	0.297269
607	C	0.44327	0.568662	0.297472
608	C	0.4344	0.577705	0.339517
609	C	0.443394	0.568523	0.048024
610	C	0.461552	0.550332	0.04782
611	N	0.433964	0.577609	0.258009
612	H	0.43838	0.571968	0.228404
613	H	0.421793	0.589904	0.257421
614	N	0.4706	0.541636	0.257605
615	H	0.48277	0.529344	0.256746
616	H	0.466089	0.547366	0.228112
617	N	0.434191	0.577324	0.087691
618	H	0.422024	0.589619	0.088555
619	H	0.438647	0.571539	0.117179
620	N	0.470876	0.541409	0.087288
621	H	0.483057	0.529125	0.087883
622	H	0.466517	0.547109	0.116887
623	C	0.470463	0.932106	0.339108
624	C	0.461384	0.91394	0.297262
625	C	0.443217	0.877606	0.297464
626	C	0.43427	0.8597	0.33951
627	C	0.443348	0.877866	0.048022
628	C	0.461513	0.9142	0.047821
629	N	0.43408	0.859357	0.258001
630	H	0.439067	0.869408	0.228381
631	H	0.421853	0.834901	0.257417
632	N	0.470398	0.931947	0.257601
633	H	0.48262	0.956398	0.256749
634	H	0.465318	0.921714	0.228092
635	N	0.434338	0.859862	0.087686
636	H	0.422116	0.835408	0.088542
637	H	0.439425	0.870092	0.117194
638	N	0.470643	0.932447	0.087286
639	H	0.482867	0.956902	0.087876
640	H	0.465644	0.922396	0.116904
641	C	0.325587	0.580207	0.006637
642	C	0.309226	0.57822	0.04857
643	C	0.309186	0.578172	0.298064
644	N	0.324797	0.577496	0.08778
645	H	0.345026	0.575615	0.087658
646	H	0.315657	0.576575	0.117443
647	N	0.324769	0.577491	0.258845
648	H	0.345027	0.575663	0.258945
649	H	0.315684	0.576686	0.229179
650	C	0.431652	0.748393	0.006632
651	C	0.433614	0.734009	0.048565
652	C	0.433621	0.702675	0.04855
653	C	0.431573	0.686284	0.006614
654	C	0.433732	0.702743	0.298052
655	C	0.433768	0.734095	0.29805
656	N	0.434435	0.687152	0.087755
657	H	0.435884	0.696557	0.117372
658	H	0.436384	0.666972	0.08758
659	N	0.434291	0.750269	0.087781
660	H	0.43621	0.772385	0.087641
661	H	0.435344	0.742121	0.117435
662	N	0.434562	0.68723	0.25885
663	H	0.436336	0.666952	0.258983
664	H	0.435857	0.696554	0.229214
665	N	0.434606	0.750443	0.258852
666	H	0.436443	0.772524	0.258993
667	H	0.435807	0.742371	0.229207
668	C	0.309172	0.734072	0.048594
669	C	0.325565	0.748401	0.006673
670	C	0.309182	0.734064	0.29807
671	N	0.324705	0.750408	0.087792
672	H	0.315372	0.742394	0.11743
673	H	0.344944	0.772493	0.087635
674	N	0.324751	0.750337	0.258854
675	H	0.345017	0.772397	0.258961
676	H	0.315561	0.742167	0.229201
677	C	0.488769	0.522971	0.338919
678	C	0.471354	0.987151	0.338919
679	C	0.488788	0.96875	0.338916
680	H	0.445492	0.974225	0.338987
681	C	0.415815	0.650018	0.339989
682	C	0.380199	0.631652	0.34006
683	C	0.361892	0.59605	0.339989
684	C	0.380118	0.578458	0.339824
685	C	0.416028	0.595985	0.339726
686	C	0.433491	0.631875	0.339814
687	H	0.367055	0.552621	0.339736
688	H	0.459337	0.644982	0.339719
689	H	0.367203	0.644588	0.340134
690	C	0.361862	0.768866	0.339976
691	C	0.380209	0.751599	0.340043
692	C	0.415827	0.768864	0.339959
693	C	0.433457	0.804668	0.3398
694	C	0.41595	0.823066	0.339716
695	C	0.380044	0.804673	0.33982
696	H	0.459304	0.817417	0.339716
697	H	0.366949	0.817422	0.339746
698	H	0.367245	0.725677	0.340131
699	C	0.470417	0.54128	0.672444
700	C	0.461418	0.550461	0.630602
701	C	0.44327	0.568662	0.630805
702	C	0.4344	0.577705	0.672849
703	C	0.443394	0.568523	0.381358
704	C	0.461552	0.550332	0.381152
705	N	0.433964	0.577609	0.591343
706	H	0.43838	0.571968	0.561737
707	H	0.421793	0.589904	0.590752
708	N	0.4706	0.541636	0.590938
709	H	0.48277	0.529344	0.590077
710	H	0.466089	0.547366	0.561444
711	N	0.434191	0.577324	0.421023
712	H	0.422024	0.589619	0.421887
713	H	0.438647	0.571539	0.450514
714	N	0.470876	0.541409	0.420621
715	H	0.483057	0.529125	0.421215
716	H	0.466517	0.547109	0.45022
717	C	0.470463	0.932106	0.672441
718	C	0.461384	0.91394	0.630596
719	C	0.443217	0.877606	0.630795
720	C	0.43427	0.8597	0.672842
721	C	0.443348	0.877866	0.381355
722	C	0.461513	0.9142	0.381152
723	N	0.43408	0.859357	0.591333
724	H	0.439067	0.869408	0.561714
725	H	0.421853	0.834901	0.590749
726	N	0.470398	0.931947	0.590935
727	H	0.48262	0.956398	0.590081
728	H	0.465318	0.921714	0.561423
729	N	0.434338	0.859862	0.421019
730	H	0.422116	0.835408	0.421873
731	H	0.439425	0.870092	0.450527
732	N	0.470643	0.932447	0.420618
733	H	0.482867	0.956902	0.421208
734	H	0.465644	0.922396	0.450237
735	C	0.325587	0.580207	0.339969
736	C	0.309226	0.57822	0.381902
737	C	0.309186	0.578172	0.631396
738	N	0.324797	0.577496	0.421114
739	H	0.345026	0.575615	0.420989
740	H	0.315657	0.576575	0.450777
741	N	0.324769	0.577491	0.592177
742	H	0.345027	0.575663	0.592278
743	H	0.315684	0.576686	0.562514
744	C	0.431652	0.748393	0.339965
745	C	0.433614	0.734009	0.381898
746	C	0.433621	0.702675	0.381881
747	C	0.431573	0.686284	0.339945
748	C	0.433732	0.702743	0.631386
749	C	0.433768	0.734095	0.631382
750	N	0.434435	0.687152	0.421087
751	H	0.435884	0.696557	0.450706
752	H	0.436384	0.666972	0.420911
753	N	0.434291	0.750269	0.421114
754	H	0.43621	0.772385	0.420975
755	H	0.435344	0.742121	0.450767
756	N	0.434562	0.68723	0.592183
757	H	0.436336	0.666952	0.592315
758	H	0.435857	0.696554	0.562547
759	N	0.434606	0.750443	0.592183
760	H	0.436443	0.772524	0.592325
761	H	0.435807	0.742371	0.562541
762	C	0.309172	0.734072	0.381925
763	C	0.325565	0.748401	0.340006
764	C	0.309182	0.734064	0.631402
765	N	0.324705	0.750408	0.421124
766	H	0.315372	0.742394	0.450764
767	H	0.344944	0.772493	0.420969
768	N	0.324751	0.750337	0.592187
769	H	0.345017	0.772397	0.592295
770	H	0.315561	0.742167	0.562534
771	C	0.488769	0.522971	0.672252
772	C	0.471354	0.987151	0.672252
773	C	0.488788	0.96875	0.672248
774	H	0.445492	0.974225	0.672319
775	C	0.415815	0.650018	0.673322
776	C	0.380199	0.631652	0.673393
777	C	0.361892	0.59605	0.673322
778	C	0.380118	0.578458	0.673156
779	C	0.416028	0.595985	0.673059
780	C	0.433491	0.631875	0.673146
781	H	0.367055	0.552621	0.673069
782	H	0.459337	0.644982	0.673052
783	H	0.367203	0.644588	0.673467
784	C	0.361862	0.768866	0.673308
785	C	0.380209	0.751599	0.673376
786	C	0.415827	0.768864	0.673291
787	C	0.433457	0.804668	0.673133
788	C	0.41595	0.823066	0.673048
789	C	0.380044	0.804673	0.673153
790	H	0.459304	0.817417	0.673048
791	H	0.366949	0.817422	0.673079
792	H	0.367245	0.725677	0.673464
793	C	0.470417	0.54128	0.005777
794	C	0.461418	0.550461	0.963935
795	C	0.44327	0.568662	0.964138
796	C	0.4344	0.577705	0.006182
797	C	0.443394	0.568523	0.714691
798	C	0.461552	0.550332	0.714485
799	N	0.433964	0.577609	0.924676
800	H	0.43838	0.571968	0.89507
801	H	0.421793	0.589904	0.924085
802	N	0.4706	0.541636	0.924271
803	H	0.48277	0.529344	0.92341
804	H	0.466089	0.547366	0.89478
805	N	0.434191	0.577324	0.754355
806	H	0.422024	0.589619	0.75522
807	H	0.438647	0.571539	0.783847
808	N	0.470876	0.541409	0.753954
809	H	0.483057	0.529125	0.754548
810	H	0.466517	0.547109	0.783553
811	C	0.470463	0.932106	0.005774
812	C	0.461384	0.91394	0.963928
813	C	0.443217	0.877606	0.964128
814	C	0.43427	0.8597	0.006175
815	C	0.443348	0.877866	0.714688
816	C	0.461513	0.9142	0.714485
817	N	0.43408	0.859357	0.924666
818	H	0.439067	0.869408	0.895046
819	H	0.421853	0.834901	0.924082
820	N	0.470398	0.931947	0.924267
821	H	0.48262	0.956398	0.923413
822	H	0.465318	0.921714	0.894756
823	N	0.434338	0.859862	0.754352
824	H	0.422116	0.835408	0.755206
825	H	0.439425	0.870092	0.78386
826	N	0.470643	0.932447	0.75395
827	H	0.482867	0.956902	0.754541
828	H	0.465644	0.922396	0.78357
829	C	0.325587	0.580207	0.673302
830	C	0.309226	0.57822	0.715234
831	C	0.309186	0.578172	0.964728
832	N	0.324797	0.577496	0.754447
833	H	0.345026	0.575615	0.754322
834	H	0.315657	0.576575	0.78411
835	N	0.324769	0.577491	0.925509
836	H	0.345027	0.575663	0.925611
837	H	0.315684	0.576686	0.895846
838	C	0.431652	0.748393	0.673298
839	C	0.433614	0.734009	0.715231
840	C	0.433621	0.702675	0.715214
841	C	0.431573	0.686284	0.673278
842	C	0.433732	0.702743	0.964718
843	C	0.433768	0.734095	0.964715
844	N	0.434435	0.687152	0.75442
845	H	0.435884	0.696557	0.784039
846	H	0.436384	0.666972	0.754244
847	N	0.434291	0.750269	0.754447
848	H	0.43621	0.772385	0.754308
849	H	0.435344	0.742121	0.7841
850	N	0.434562	0.68723	0.925516
851	H	0.436336	0.666952	0.925648
852	H	0.435857	0.696554	0.89588
853	N	0.434606	0.750443	0.92552
854	H	0.436443	0.772524	0.925658
855	H	0.435807	0.742371	0.895873
856	C	0.309172	0.734072	0.715258
857	C	0.325565	0.748401	0.673339
858	C	0.309182	0.734064	0.964735
859	N	0.324705	0.750408	0.754457
860	H	0.315372	0.742394	0.784096
861	H	0.344944	0.772493	0.754301
862	N	0.324751	0.750337	0.92552
863	H	0.345017	0.772397	0.925628
864	H	0.315561	0.742167	0.895867
865	C	0.543036	0.022973	0.005581
866	C	0.52461	0.040388	0.005581
867	C	0.988771	0.022971	0.005585
868	C	0.971356	0.487152	0.005585
869	C	0.988789	0.468751	0.005581
870	C	0.524626	0.487152	0.005578
871	H	0.945493	0.474223	0.005652
872	H	0.53756	0.474226	0.005649
873	H	0.537537	0.066238	0.005649
874	C	0.743051	0.096174	0.006606
875	C	0.760306	0.131772	0.006675
876	C	0.743014	0.150094	0.006603
877	C	0.707192	0.131907	0.006468
878	C	0.688803	0.096017	0.006374
879	C	0.707227	0.078534	0.006468
880	H	0.694426	0.144986	0.006404
881	H	0.694485	0.0527	0.006403
882	H	0.786242	0.144746	0.006769
883	C	0.915814	0.150017	0.006655
884	C	0.880198	0.131651	0.006727
885	C	0.861892	0.096049	0.006656
886	C	0.880119	0.078457	0.00649
887	C	0.916029	0.095985	0.006394
888	C	0.93349	0.131873	0.006482
889	H	0.867056	0.052622	0.006403
890	H	0.959337	0.144983	0.006387
891	H	0.867204	0.144589	0.006801
892	C	0.861862	0.268867	0.006644
893	C	0.88021	0.251598	0.006712
894	C	0.915827	0.268865	0.006627
895	C	0.933458	0.304669	0.006468
896	C	0.915951	0.323067	0.006384
897	C	0.880044	0.304671	0.006486
898	H	0.959306	0.317418	0.006382
899	H	0.866951	0.317423	0.006414
900	H	0.867245	0.225676	0.006798
901	C	0.579701	0.041284	0.339105
902	C	0.597877	0.050458	0.297262
903	C	0.63423	0.068657	0.297461
904	C	0.652149	0.077702	0.339503
905	C	0.633973	0.068528	0.048014
906	C	0.597622	0.050329	0.047813
907	N	0.652482	0.07761	0.257996
908	H	0.642422	0.071984	0.228392
909	H	0.676948	0.089894	0.257405
910	N	0.579867	0.041626	0.2576
911	H	0.555406	0.029344	0.256744
912	H	0.590109	0.047341	0.228105
913	N	0.651982	0.07736	0.087678
914	H	0.676447	0.089647	0.088537
915	H	0.641744	0.071656	0.117171
916	N	0.579374	0.041378	0.087282
917	H	0.554906	0.029088	0.087879
918	H	0.589434	0.046992	0.116884
919	C	0.970419	0.041281	0.339111
920	C	0.961418	0.050459	0.297269
921	C	0.94327	0.068661	0.297472
922	C	0.934401	0.077706	0.339517
923	C	0.943396	0.068524	0.048024
924	C	0.961554	0.050333	0.04782
925	N	0.933965	0.077609	0.258009
926	H	0.93838	0.071968	0.228404
927	H	0.921794	0.089905	0.257421
928	N	0.970601	0.041636	0.257605
929	H	0.98277	0.029345	0.256746
930	H	0.966089	0.047366	0.228112
931	N	0.934191	0.077325	0.087691
932	H	0.922026	0.08962	0.088555
933	H	0.938647	0.07154	0.117179
934	N	0.970876	0.041408	0.087288
935	H	0.983058	0.029124	0.087883
936	H	0.966518	0.047109	0.116887
937	C	0.970465	0.432107	0.339108
938	C	0.961385	0.413941	0.297262
939	C	0.943218	0.377607	0.297464
940	C	0.934272	0.359701	0.33951
941	C	0.943349	0.377864	0.048022
942	C	0.961514	0.414198	0.047821
943	N	0.93408	0.359355	0.258001
944	H	0.939067	0.369406	0.228381
945	H	0.921854	0.334902	0.257417
946	N	0.970397	0.431945	0.257601
947	H	0.982621	0.456398	0.256749
948	H	0.965319	0.421715	0.228092
949	N	0.934339	0.35986	0.087686
950	H	0.922116	0.335409	0.088542
951	H	0.939427	0.370093	0.117194
952	N	0.970643	0.432445	0.087286
953	H	0.982868	0.456901	0.087876
954	H	0.965644	0.422396	0.116904
955	C	0.825587	0.080207	0.006637
956	C	0.809227	0.078221	0.04857
957	C	0.777906	0.078278	0.048563
958	C	0.763577	0.080422	0.006669
959	C	0.777845	0.07819	0.298095
960	C	0.809187	0.078172	0.298064
961	N	0.761566	0.077477	0.087764
962	H	0.76946	0.075895	0.117371
963	H	0.739465	0.075614	0.087581
964	N	0.824797	0.077495	0.08778
965	H	0.845026	0.075615	0.087658
966	H	0.815659	0.076575	0.117443
967	N	0.76142	0.077224	0.258902
968	H	0.739314	0.075348	0.259089
969	H	0.769227	0.075459	0.229318
970	N	0.824769	0.077492	0.258845
971	H	0.845026	0.075663	0.258945
972	H	0.815685	0.076684	0.229179
973	C	0.931653	0.248394	0.006632
974	C	0.933614	0.234008	0.048565
975	C	0.933621	0.202675	0.04855
976	C	0.931575	0.186284	0.006614
977	C	0.933731	0.202742	0.298052
978	C	0.933769	0.234094	0.29805
979	N	0.934436	0.187151	0.087755
980	H	0.935886	0.196557	0.117372
981	H	0.936383	0.166971	0.08758
982	N	0.934292	0.250269	0.087781
983	H	0.936212	0.272386	0.087641
984	H	0.935344	0.24212	0.117435
985	N	0.934563	0.18723	0.25885
986	H	0.936336	0.166951	0.258983
987	H	0.935857	0.196554	0.229214
988	N	0.934607	0.250444	0.258852
989	H	0.936444	0.272522	0.258993
990	H	0.935808	0.24237	0.229207
991	C	0.763481	0.186373	0.006672
992	C	0.77784	0.202737	0.048597
993	C	0.809173	0.234073	0.048594
994	C	0.825566	0.248402	0.006673
995	C	0.809181	0.234064	0.29807
996	C	0.777806	0.202765	0.298074
997	N	0.824706	0.250408	0.087792
998	H	0.815373	0.242395	0.11743
999	H	0.844945	0.272494	0.087635
1000	N	0.761551	0.18716	0.0878
1001	H	0.739475	0.166906	0.087669
1002	H	0.769701	0.196362	0.117455
1003	N	0.824751	0.250337	0.258854
1004	H	0.845017	0.272398	0.258961
1005	H	0.815563	0.242167	0.229201
1006	N	0.76143	0.18728	0.258872
1007	H	0.739289	0.167111	0.259049
1008	H	0.769379	0.19668	0.22925
1009	C	0.543036	0.022973	0.338916
1010	C	0.52461	0.040388	0.338916
1011	C	0.988771	0.022971	0.338919
1012	C	0.971356	0.487152	0.338919
1013	C	0.988789	0.468751	0.338916
1014	C	0.524626	0.487152	0.338912
1015	H	0.945493	0.474223	0.338987
1016	H	0.53756	0.474226	0.338983
1017	H	0.537537	0.066238	0.338983
1018	C	0.743051	0.096174	0.339938
1019	C	0.760306	0.131772	0.340009
1020	C	0.743014	0.150094	0.339935
1021	C	0.707192	0.131907	0.3398
1022	C	0.688803	0.096017	0.339706
1023	C	0.707227	0.078534	0.3398
1024	H	0.694426	0.144986	0.339736
1025	H	0.694485	0.0527	0.339736
1026	H	0.786242	0.144746	0.3401
1027	C	0.915814	0.150017	0.339989
1028	C	0.880198	0.131651	0.34006
1029	C	0.861892	0.096049	0.339989
1030	C	0.880119	0.078457	0.339824
1031	C	0.916029	0.095985	0.339726
1032	C	0.93349	0.131873	0.339814
1033	H	0.867056	0.052622	0.339736
1034	H	0.959337	0.144983	0.339719
1035	H	0.867204	0.144589	0.340134
1036	C	0.861862	0.268867	0.339976
1037	C	0.88021	0.251598	0.340043
1038	C	0.915827	0.268865	0.339959
1039	C	0.933458	0.304669	0.3398
1040	C	0.915951	0.323067	0.339716
1041	C	0.880044	0.304671	0.33982
1042	H	0.959306	0.317418	0.339716
1043	H	0.866951	0.317423	0.339746
1044	H	0.867245	0.225676	0.340131
1045	C	0.579701	0.041284	0.672437
1046	C	0.597877	0.050458	0.630596
1047	C	0.63423	0.068657	0.630795
1048	C	0.652149	0.077702	0.672836
1049	C	0.633973	0.068528	0.381348
1050	C	0.597622	0.050329	0.381146
1051	N	0.652482	0.07761	0.59133
1052	H	0.642422	0.071984	0.561724
1053	H	0.676948	0.089894	0.590739
1054	N	0.579867	0.041626	0.590931
1055	H	0.555406	0.029344	0.590077
1056	H	0.590109	0.047341	0.561437
1057	N	0.651982	0.07736	0.421009
1058	H	0.676447	0.089647	0.42187
1059	H	0.641744	0.071656	0.450504
1060	N	0.579374	0.041378	0.420614
1061	H	0.554906	0.029088	0.421212
1062	H	0.589434	0.046992	0.450217
1063	C	0.970419	0.041281	0.672444
1064	C	0.961418	0.050459	0.630602
1065	C	0.94327	0.068661	0.630805
1066	C	0.934401	0.077706	0.672849
1067	C	0.943396	0.068524	0.381358
1068	C	0.961554	0.050333	0.381152
1069	N	0.933965	0.077609	0.591343
1070	H	0.93838	0.071968	0.561737
1071	H	0.921794	0.089905	0.590752
1072	N	0.970601	0.041636	0.590938
1073	H	0.98277	0.029345	0.590077
1074	H	0.966089	0.047366	0.561444
1075	N	0.934191	0.077325	0.421023
1076	H	0.922026	0.08962	0.421887
1077	H	0.938647	0.07154	0.450514
1078	N	0.970876	0.041408	0.420621
1079	H	0.983058	0.029124	0.421215
1080	H	0.966518	0.047109	0.45022
1081	C	0.970465	0.432107	0.672441
1082	C	0.961385	0.413941	0.630596
1083	C	0.943218	0.377607	0.630795
1084	C	0.934272	0.359701	0.672842
1085	C	0.943349	0.377864	0.381355
1086	C	0.961514	0.414198	0.381152
1087	N	0.93408	0.359355	0.591333
1088	H	0.939067	0.369406	0.561714
1089	H	0.921854	0.334902	0.590749
1090	N	0.970397	0.431945	0.590935
1091	H	0.982621	0.456398	0.590081
1092	H	0.965319	0.421715	0.561423
1093	N	0.934339	0.35986	0.421019
1094	H	0.922116	0.335409	0.421873
1095	H	0.939427	0.370093	0.450527
1096	N	0.970643	0.432445	0.420618
1097	H	0.982868	0.456901	0.421208
1098	H	0.965644	0.422396	0.450237
1099	C	0.825587	0.080207	0.339969
1100	C	0.809227	0.078221	0.381902
1101	C	0.777906	0.078278	0.381895
1102	C	0.763577	0.080422	0.340003
1103	C	0.777845	0.07819	0.631426
1104	C	0.809187	0.078172	0.631396
1105	N	0.761566	0.077477	0.421097
1106	H	0.76946	0.075895	0.450703
1107	H	0.739465	0.075614	0.420915
1108	N	0.824797	0.077495	0.421114
1109	H	0.845026	0.075615	0.420989
1110	H	0.815659	0.076575	0.450777
1111	N	0.76142	0.077224	0.592234
1112	H	0.739314	0.075348	0.592423
1113	H	0.769227	0.075459	0.562652
1114	N	0.824769	0.077492	0.592177
1115	H	0.845026	0.075663	0.592278
1116	H	0.815685	0.076684	0.562514
1117	C	0.931653	0.248394	0.339965
1118	C	0.933614	0.234008	0.381898
1119	C	0.933621	0.202675	0.381881
1120	C	0.931575	0.186284	0.339945
1121	C	0.933731	0.202742	0.631386
1122	C	0.933769	0.234094	0.631382
1123	N	0.934436	0.187151	0.421087
1124	H	0.935886	0.196557	0.450706
1125	H	0.936383	0.166971	0.420911
1126	N	0.934292	0.250269	0.421114
1127	H	0.936212	0.272386	0.420975
1128	H	0.935344	0.24212	0.450767
1129	N	0.934563	0.18723	0.592183
1130	H	0.936336	0.166951	0.592315
1131	H	0.935857	0.196554	0.562547
1132	N	0.934607	0.250444	0.592183
1133	H	0.936444	0.272522	0.592325
1134	H	0.935808	0.24237	0.562541
1135	C	0.763481	0.186373	0.340006
1136	C	0.77784	0.202737	0.381929
1137	C	0.809173	0.234073	0.381925
1138	C	0.825566	0.248402	0.340006
1139	C	0.809181	0.234064	0.631402
1140	C	0.777806	0.202765	0.631406
1141	N	0.824706	0.250408	0.421124
1142	H	0.815373	0.242395	0.450764
1143	H	0.844945	0.272494	0.420969
1144	N	0.761551	0.18716	0.421134
1145	H	0.739475	0.166906	0.421002
1146	H	0.769701	0.196362	0.450787
1147	N	0.824751	0.250337	0.592187
1148	H	0.845017	0.272398	0.592295
1149	H	0.815563	0.242167	0.562534
1150	N	0.76143	0.18728	0.592204
1151	H	0.739289	0.167111	0.592383
1152	H	0.769379	0.19668	0.562584
1153	C	0.543036	0.022973	0.672248
1154	C	0.52461	0.040388	0.672248
1155	C	0.988771	0.022971	0.672252
1156	C	0.971356	0.487152	0.672252
1157	C	0.988789	0.468751	0.672248
1158	C	0.524626	0.487152	0.672245
1159	H	0.945493	0.474223	0.672319
1160	H	0.53756	0.474226	0.672316
1161	H	0.537537	0.066238	0.672316
1162	C	0.743051	0.096174	0.673271
1163	C	0.760306	0.131772	0.673342
1164	C	0.743014	0.150094	0.673268
1165	C	0.707192	0.131907	0.673133
1166	C	0.688803	0.096017	0.673038
1167	C	0.707227	0.078534	0.673133
1168	H	0.694426	0.144986	0.673069
1169	H	0.694485	0.0527	0.673069
1170	H	0.786242	0.144746	0.673433
1171	C	0.915814	0.150017	0.673322
1172	C	0.880198	0.131651	0.673393
1173	C	0.861892	0.096049	0.673322
1174	C	0.880119	0.078457	0.673156
1175	C	0.916029	0.095985	0.673059
1176	C	0.93349	0.131873	0.673146
1177	H	0.867056	0.052622	0.673069
1178	H	0.959337	0.144983	0.673052
1179	H	0.867204	0.144589	0.673467
1180	C	0.861862	0.268867	0.673308
1181	C	0.88021	0.251598	0.673376
1182	C	0.915827	0.268865	0.673291
1183	C	0.933458	0.304669	0.673133
1184	C	0.915951	0.323067	0.673048
1185	C	0.880044	0.304671	0.673153
1186	H	0.959306	0.317418	0.673048
1187	H	0.866951	0.317423	0.673079
1188	H	0.867245	0.225676	0.673464
1189	C	0.579701	0.041284	0.00577
1190	C	0.597877	0.050458	0.963928
1191	C	0.63423	0.068657	0.964128
1192	C	0.652149	0.077702	0.006168
1193	C	0.633973	0.068528	0.714681
1194	C	0.597622	0.050329	0.714478
1195	N	0.652482	0.07761	0.924662
1196	H	0.642422	0.071984	0.895056
1197	H	0.676948	0.089894	0.924072
1198	N	0.579867	0.041626	0.924264
1199	H	0.555406	0.029344	0.92341
1200	H	0.590109	0.047341	0.89477
1201	N	0.651982	0.07736	0.754342
1202	H	0.676447	0.089647	0.755203
1203	H	0.641744	0.071656	0.783836
1204	N	0.579374	0.041378	0.753947
1205	H	0.554906	0.029088	0.754545
1206	H	0.589434	0.046992	0.783549
1207	C	0.970419	0.041281	0.005777
1208	C	0.961418	0.050459	0.963935
1209	C	0.94327	0.068661	0.964138
1210	C	0.934401	0.077706	0.006182
1211	C	0.943396	0.068524	0.714691
1212	C	0.961554	0.050333	0.714485
1213	N	0.933965	0.077609	0.924676
1214	H	0.93838	0.071968	0.89507
1215	H	0.921794	0.089905	0.924085
1216	N	0.970601	0.041636	0.924271
1217	H	0.98277	0.029345	0.92341
1218	H	0.966089	0.047366	0.89478
1219	N	0.934191	0.077325	0.754355
1220	H	0.922026	0.08962	0.75522
1221	H	0.938647	0.07154	0.783847
1222	N	0.970876	0.041408	0.753954
1223	H	0.983058	0.029124	0.754548
1224	H	0.966518	0.047109	0.783553
1225	C	0.970465	0.432107	0.005774
1226	C	0.961385	0.413941	0.963928
1227	C	0.943218	0.377607	0.964128
1228	C	0.934272	0.359701	0.006175
1229	C	0.943349	0.377864	0.714688
1230	C	0.961514	0.414198	0.714485
1231	N	0.93408	0.359355	0.924666
1232	H	0.939067	0.369406	0.895046
1233	H	0.921854	0.334902	0.924082
1234	N	0.970397	0.431945	0.924267
1235	H	0.982621	0.456398	0.923413
1236	H	0.965319	0.421715	0.894756
1237	N	0.934339	0.35986	0.754352
1238	H	0.922116	0.335409	0.755206
1239	H	0.939427	0.370093	0.78386
1240	N	0.970643	0.432445	0.75395
1241	H	0.982868	0.456901	0.754541
1242	H	0.965644	0.422396	0.78357
1243	C	0.825587	0.080207	0.673302
1244	C	0.809227	0.078221	0.715234
1245	C	0.777906	0.078278	0.715228
1246	C	0.763577	0.080422	0.673335
1247	C	0.777845	0.07819	0.964759
1248	C	0.809187	0.078172	0.964728
1249	N	0.761566	0.077477	0.75443
1250	H	0.76946	0.075895	0.784036
1251	H	0.739465	0.075614	0.754247
1252	N	0.824797	0.077495	0.754447
1253	H	0.845026	0.075615	0.754322
1254	H	0.815659	0.076575	0.78411
1255	N	0.76142	0.077224	0.925567
1256	H	0.739314	0.075348	0.925756
1257	H	0.769227	0.075459	0.895985
1258	N	0.824769	0.077492	0.925509
1259	H	0.845026	0.075663	0.925611
1260	H	0.815685	0.076684	0.895846
1261	C	0.931653	0.248394	0.673298
1262	C	0.933614	0.234008	0.715231
1263	C	0.933621	0.202675	0.715214
1264	C	0.931575	0.186284	0.673278
1265	C	0.933731	0.202742	0.964718
1266	C	0.933769	0.234094	0.964715
1267	N	0.934436	0.187151	0.75442
1268	H	0.935886	0.196557	0.784039
1269	H	0.936383	0.166971	0.754244
1270	N	0.934292	0.250269	0.754447
1271	H	0.936212	0.272386	0.754308
1272	H	0.935344	0.24212	0.7841
1273	N	0.934563	0.18723	0.925516
1274	H	0.936336	0.166951	0.925648
1275	H	0.935857	0.196554	0.89588
1276	N	0.934607	0.250444	0.92552
1277	H	0.936444	0.272522	0.925658
1278	H	0.935808	0.24237	0.895873
1279	C	0.763481	0.186373	0.673339
1280	C	0.77784	0.202737	0.715261
1281	C	0.809173	0.234073	0.715258
1282	C	0.825566	0.248402	0.673339
1283	C	0.809181	0.234064	0.964735
1284	C	0.777806	0.202765	0.964739
1285	N	0.824706	0.250408	0.754457
1286	H	0.815373	0.242395	0.784096
1287	H	0.844945	0.272494	0.754301
1288	N	0.761551	0.18716	0.754467
1289	H	0.739475	0.166906	0.754335
1290	H	0.769701	0.196362	0.78412
1291	N	0.824751	0.250337	0.92552
1292	H	0.845017	0.272398	0.925628
1293	H	0.815563	0.242167	0.895867
1294	N	0.76143	0.18728	0.925536
1295	H	0.739289	0.167111	0.925715
1296	H	0.769379	0.19668	0.895917
1297	C	0.543036	0.522973	0.005581
1298	C	0.524611	0.540389	0.005581
1299	C	0.988771	0.522971	0.005585
1300	C	0.971355	0.987151	0.005585
1301	C	0.988789	0.96875	0.005581
1302	C	0.524627	0.987153	0.005578
1303	H	0.945493	0.974225	0.005652
1304	H	0.53756	0.974225	0.005649
1305	H	0.537537	0.566239	0.005649
1306	C	0.743051	0.596174	0.006606
1307	C	0.760306	0.631774	0.006675
1308	C	0.743014	0.650093	0.006603
1309	C	0.707192	0.631907	0.006468
1310	C	0.688803	0.596018	0.006374
1311	C	0.707227	0.578533	0.006468
1312	H	0.694426	0.644985	0.006404
1313	H	0.694485	0.552699	0.006403
1314	H	0.786241	0.644745	0.006769
1315	C	0.915815	0.650018	0.006655
1316	C	0.880199	0.631652	0.006727
1317	C	0.861892	0.59605	0.006656
1318	C	0.88012	0.578458	0.00649
1319	C	0.916029	0.595985	0.006394
1320	C	0.933491	0.631875	0.006482
1321	H	0.867055	0.552621	0.006403
1322	H	0.959336	0.644982	0.006387
1323	H	0.867204	0.644588	0.006801
1324	C	0.861862	0.768866	0.006644
1325	C	0.88021	0.751599	0.006712
1326	C	0.915827	0.768864	0.006627
1327	C	0.933458	0.804668	0.006468
1328	C	0.91595	0.823066	0.006384
1329	C	0.880045	0.804673	0.006486
1330	H	0.959305	0.817417	0.006382
1331	H	0.86695	0.817422	0.006414
1332	H	0.867245	0.725677	0.006798
1333	C	0.579701	0.541285	0.339105
1334	C	0.597877	0.550458	0.297262
1335	C	0.63423	0.568657	0.297461
1336	C	0.65215	0.577703	0.339503
1337	C	0.633973	0.568528	0.048014
1338	C	0.597622	0.550329	0.047813
1339	N	0.652481	0.577609	0.257996
1340	H	0.642422	0.571983	0.228392
1341	H	0.676949	0.589894	0.257405
1342	N	0.579867	0.541626	0.2576
1343	H	0.555406	0.529344	0.256744
1344	H	0.590109	0.547341	0.228105
1345	N	0.651982	0.57736	0.087678
1346	H	0.676447	0.589647	0.088537
1347	H	0.641744	0.571655	0.117171
1348	N	0.579374	0.541379	0.087282
1349	H	0.554906	0.529089	0.087879
1350	H	0.589434	0.546992	0.116884
1351	C	0.970419	0.54128	0.339111
1352	C	0.961419	0.550461	0.297269
1353	C	0.94327	0.568662	0.297472
1354	C	0.934401	0.577705	0.339517
1355	C	0.943396	0.568523	0.048024
1356	C	0.961553	0.550332	0.04782
1357	N	0.933966	0.577609	0.258009
1358	H	0.93838	0.571968	0.228404
1359	H	0.921794	0.589904	0.257421
1360	N	0.970601	0.541636	0.257605
1361	H	0.98277	0.529344	0.256746
1362	H	0.966089	0.547366	0.228112
1363	N	0.934191	0.577324	0.087691
1364	H	0.922026	0.589619	0.088555
1365	H	0.938646	0.571539	0.117179
1366	N	0.970877	0.541409	0.087288
1367	H	0.983058	0.529125	0.087883
1368	H	0.966518	0.547109	0.116887
1369	C	0.970464	0.932106	0.339108
1370	C	0.961385	0.91394	0.297262
1371	C	0.943217	0.877606	0.297464
1372	C	0.934272	0.8597	0.33951
1373	C	0.94335	0.877866	0.048022
1374	C	0.961515	0.9142	0.047821
1375	N	0.934081	0.859357	0.258001
1376	H	0.939067	0.869408	0.228381
1377	H	0.921853	0.834901	0.257417
1378	N	0.970398	0.931947	0.257601
1379	H	0.982621	0.956398	0.256749
1380	H	0.965318	0.921714	0.228092
1381	N	0.93434	0.859862	0.087686
1382	H	0.922118	0.835408	0.088542
1383	H	0.939427	0.870092	0.117194
1384	N	0.970643	0.932447	0.087286
1385	H	0.982869	0.956902	0.087876
1386	H	0.965644	0.922396	0.116904
1387	C	0.825587	0.580207	0.006637
1388	C	0.809226	0.57822	0.04857
1389	C	0.777907	0.578278	0.048563
1390	C	0.763576	0.580421	0.006669
1391	C	0.777845	0.57819	0.298095
1392	C	0.809187	0.578172	0.298064
1393	N	0.761566	0.577478	0.087764
1394	H	0.76946	0.575896	0.117371
1395	H	0.739465	0.575615	0.087581
1396	N	0.824798	0.577496	0.08778
1397	H	0.845027	0.575615	0.087658
1398	H	0.815658	0.576575	0.117443
1399	N	0.761419	0.577223	0.258902
1400	H	0.739314	0.575348	0.259089
1401	H	0.769227	0.575459	0.229318
1402	N	0.824769	0.577491	0.258845
1403	H	0.845027	0.575663	0.258945
1404	H	0.815685	0.576686	0.229179
1405	C	0.931652	0.748393	0.006632
1406	C	0.933615	0.734009	0.048565
1407	C	0.933621	0.702675	0.04855
1408	C	0.931575	0.686284	0.006614
1409	C	0.933732	0.702743	0.298052
1410	C	0.933769	0.734095	0.29805
1411	N	0.934437	0.687152	0.087755
1412	H	0.935885	0.696557	0.117372
1413	H	0.936384	0.666972	0.08758
1414	N	0.934292	0.750269	0.087781
1415	H	0.936211	0.772385	0.087641
1416	H	0.935344	0.742121	0.117435
1417	N	0.934563	0.68723	0.25885
1418	H	0.936336	0.666952	0.258983
1419	H	0.935858	0.696554	0.229214
1420	N	0.934606	0.750443	0.258852
1421	H	0.936445	0.772524	0.258993
1422	H	0.935808	0.742371	0.229207
1423	C	0.763481	0.686374	0.006672
1424	C	0.77784	0.702735	0.048597
1425	C	0.809172	0.734072	0.048594
1426	C	0.825565	0.748401	0.006673
1427	C	0.809182	0.734064	0.29807
1428	C	0.777807	0.702766	0.298074
1429	N	0.824705	0.750408	0.087792
1430	H	0.815372	0.742394	0.11743
1431	H	0.844945	0.772493	0.087635
1432	N	0.761551	0.687159	0.0878
1433	H	0.739475	0.666906	0.087669
1434	H	0.769699	0.696362	0.117455
1435	N	0.824751	0.750337	0.258854
1436	H	0.845017	0.772397	0.258961
1437	H	0.815563	0.742167	0.229201
1438	N	0.76143	0.687281	0.258872
1439	H	0.739288	0.667111	0.259049
1440	H	0.769379	0.69668	0.22925
1441	C	0.543036	0.522973	0.338916
1442	C	0.524611	0.540389	0.338916
1443	C	0.988771	0.522971	0.338919
1444	C	0.971355	0.987151	0.338919
1445	C	0.988789	0.96875	0.338916
1446	C	0.524627	0.987153	0.338912
1447	H	0.945493	0.974225	0.338987
1448	H	0.53756	0.974225	0.338983
1449	H	0.537537	0.566239	0.338983
1450	C	0.743051	0.596174	0.339938
1451	C	0.760306	0.631774	0.340009
1452	C	0.743014	0.650093	0.339935
1453	C	0.707192	0.631907	0.3398
1454	C	0.688803	0.596018	0.339706
1455	C	0.707227	0.578533	0.3398
1456	H	0.694426	0.644985	0.339736
1457	H	0.694485	0.552699	0.339736
1458	H	0.786241	0.644745	0.3401
1459	C	0.915815	0.650018	0.339989
1460	C	0.880199	0.631652	0.34006
1461	C	0.861892	0.59605	0.339989
1462	C	0.88012	0.578458	0.339824
1463	C	0.916029	0.595985	0.339726
1464	C	0.933491	0.631875	0.339814
1465	H	0.867055	0.552621	0.339736
1466	H	0.959336	0.644982	0.339719
1467	H	0.867204	0.644588	0.340134
1468	C	0.861862	0.768866	0.339976
1469	C	0.88021	0.751599	0.340043
1470	C	0.915827	0.768864	0.339959
1471	C	0.933458	0.804668	0.3398
1472	C	0.91595	0.823066	0.339716
1473	C	0.880045	0.804673	0.33982
1474	H	0.959305	0.817417	0.339716
1475	H	0.86695	0.817422	0.339746
1476	H	0.867245	0.725677	0.340131
1477	C	0.579701	0.541285	0.672437
1478	C	0.597877	0.550458	0.630596
1479	C	0.63423	0.568657	0.630795
1480	C	0.65215	0.577703	0.672836
1481	C	0.633973	0.568528	0.381348
1482	C	0.597622	0.550329	0.381146
1483	N	0.652481	0.577609	0.59133
1484	H	0.642422	0.571983	0.561724
1485	H	0.676949	0.589894	0.590739
1486	N	0.579867	0.541626	0.590931
1487	H	0.555406	0.529344	0.590077
1488	H	0.590109	0.547341	0.561437
1489	N	0.651982	0.57736	0.421009
1490	H	0.676447	0.589647	0.42187
1491	H	0.641744	0.571655	0.450504
1492	N	0.579374	0.541379	0.420614
1493	H	0.554906	0.529089	0.421212
1494	H	0.589434	0.546992	0.450217
1495	C	0.970419	0.54128	0.672444
1496	C	0.961419	0.550461	0.630602
1497	C	0.94327	0.568662	0.630805
1498	C	0.934401	0.577705	0.672849
1499	C	0.943396	0.568523	0.381358
1500	C	0.961553	0.550332	0.381152
1501	N	0.933966	0.577609	0.591343
1502	H	0.93838	0.571968	0.561737
1503	H	0.921794	0.589904	0.590752
1504	N	0.970601	0.541636	0.590938
1505	H	0.98277	0.529344	0.590077
1506	H	0.966089	0.547366	0.561444
1507	N	0.934191	0.577324	0.421023
1508	H	0.922026	0.589619	0.421887
1509	H	0.938646	0.571539	0.450514
1510	N	0.970877	0.541409	0.420621
1511	H	0.983058	0.529125	0.421215
1512	H	0.966518	0.547109	0.45022
1513	C	0.970464	0.932106	0.672441
1514	C	0.961385	0.91394	0.630596
1515	C	0.943217	0.877606	0.630795
1516	C	0.934272	0.8597	0.672842
1517	C	0.94335	0.877866	0.381355
1518	C	0.961515	0.9142	0.381152
1519	N	0.934081	0.859357	0.591333
1520	H	0.939067	0.869408	0.561714
1521	H	0.921853	0.834901	0.590749
1522	N	0.970398	0.931947	0.590935
1523	H	0.982621	0.956398	0.590081
1524	H	0.965318	0.921714	0.561423
1525	N	0.93434	0.859862	0.421019
1526	H	0.922118	0.835408	0.421873
1527	H	0.939427	0.870092	0.450527
1528	N	0.970643	0.932447	0.420618
1529	H	0.982869	0.956902	0.421208
1530	H	0.965644	0.922396	0.450237
1531	C	0.825587	0.580207	0.339969
1532	C	0.809226	0.57822	0.381902
1533	C	0.777907	0.578278	0.381895
1534	C	0.763576	0.580421	0.340003
1535	C	0.777845	0.57819	0.631426
1536	C	0.809187	0.578172	0.631396
1537	N	0.761566	0.577478	0.421097
1538	H	0.76946	0.575896	0.450703
1539	H	0.739465	0.575615	0.420915
1540	N	0.824798	0.577496	0.421114
1541	H	0.845027	0.575615	0.420989
1542	H	0.815658	0.576575	0.450777
1543	N	0.761419	0.577223	0.592234
1544	H	0.739314	0.575348	0.592423
1545	H	0.769227	0.575459	0.562652
1546	N	0.824769	0.577491	0.592177
1547	H	0.845027	0.575663	0.592278
1548	H	0.815685	0.576686	0.562514
1549	C	0.931652	0.748393	0.339965
1550	C	0.933615	0.734009	0.381898
1551	C	0.933621	0.702675	0.381881
1552	C	0.931575	0.686284	0.339945
1553	C	0.933732	0.702743	0.631386
1554	C	0.933769	0.734095	0.631382
1555	N	0.934437	0.687152	0.421087
1556	H	0.935885	0.696557	0.450706
1557	H	0.936384	0.666972	0.420911
1558	N	0.934292	0.750269	0.421114
1559	H	0.936211	0.772385	0.420975
1560	H	0.935344	0.742121	0.450767
1561	N	0.934563	0.68723	0.592183
1562	H	0.936336	0.666952	0.592315
1563	H	0.935858	0.696554	0.562547
1564	N	0.934606	0.750443	0.592183
1565	H	0.936445	0.772524	0.592325
1566	H	0.935808	0.742371	0.562541
1567	C	0.763481	0.686374	0.340006
1568	C	0.77784	0.702735	0.381929
1569	C	0.809172	0.734072	0.381925
1570	C	0.825565	0.748401	0.340006
1571	C	0.809182	0.734064	0.631402
1572	C	0.777807	0.702766	0.631406
1573	N	0.824705	0.750408	0.421124
1574	H	0.815372	0.742394	0.450764
1575	H	0.844945	0.772493	0.420969
1576	N	0.761551	0.687159	0.421134
1577	H	0.739475	0.666906	0.421002
1578	H	0.769699	0.696362	0.450787
1579	N	0.824751	0.750337	0.592187
1580	H	0.845017	0.772397	0.592295
1581	H	0.815563	0.742167	0.562534
1582	N	0.76143	0.687281	0.592204
1583	H	0.739288	0.667111	0.592383
1584	H	0.769379	0.69668	0.562584
1585	C	0.543036	0.522973	0.672248
1586	C	0.524611	0.540389	0.672248
1587	C	0.988771	0.522971	0.672252
1588	C	0.971355	0.987151	0.672252
1589	C	0.988789	0.96875	0.672248
1590	C	0.524627	0.987153	0.672245
1591	H	0.945493	0.974225	0.672319
1592	H	0.53756	0.974225	0.672316
1593	H	0.537537	0.566239	0.672316
1594	C	0.743051	0.596174	0.673271
1595	C	0.760306	0.631774	0.673342
1596	C	0.743014	0.650093	0.673268
1597	C	0.707192	0.631907	0.673133
1598	C	0.688803	0.596018	0.673038
1599	C	0.707227	0.578533	0.673133
1600	H	0.694426	0.644985	0.673069
1601	H	0.694485	0.552699	0.673069
1602	H	0.786241	0.644745	0.673433
1603	C	0.915815	0.650018	0.673322
1604	C	0.880199	0.631652	0.673393
1605	C	0.861892	0.59605	0.673322
1606	C	0.88012	0.578458	0.673156
1607	C	0.916029	0.595985	0.673059
1608	C	0.933491	0.631875	0.673146
1609	H	0.867055	0.552621	0.673069
1610	H	0.959336	0.644982	0.673052
1611	H	0.867204	0.644588	0.673467
1612	C	0.861862	0.768866	0.673308
1613	C	0.88021	0.751599	0.673376
1614	C	0.915827	0.768864	0.673291
1615	C	0.933458	0.804668	0.673133
1616	C	0.91595	0.823066	0.673048
1617	C	0.880045	0.804673	0.673153
1618	H	0.959305	0.817417	0.673048
1619	H	0.86695	0.817422	0.673079
1620	H	0.867245	0.725677	0.673464
1621	C	0.579701	0.541285	0.00577
1622	C	0.597877	0.550458	0.963928
1623	C	0.63423	0.568657	0.964128
1624	C	0.65215	0.577703	0.006168
1625	C	0.633973	0.568528	0.714681
1626	C	0.597622	0.550329	0.714478
1627	N	0.652481	0.577609	0.924662
1628	H	0.642422	0.571983	0.895056
1629	H	0.676949	0.589894	0.924072
1630	N	0.579867	0.541626	0.924264
1631	H	0.555406	0.529344	0.92341
1632	H	0.590109	0.547341	0.89477
1633	N	0.651982	0.57736	0.754342
1634	H	0.676447	0.589647	0.755203
1635	H	0.641744	0.571655	0.783836
1636	N	0.579374	0.541379	0.753947
1637	H	0.554906	0.529089	0.754545
1638	H	0.589434	0.546992	0.783549
1639	C	0.970419	0.54128	0.005777
1640	C	0.961419	0.550461	0.963935
1641	C	0.94327	0.568662	0.964138
1642	C	0.934401	0.577705	0.006182
1643	C	0.943396	0.568523	0.714691
1644	C	0.961553	0.550332	0.714485
1645	N	0.933966	0.577609	0.924676
1646	H	0.93838	0.571968	0.89507
1647	H	0.921794	0.589904	0.924085
1648	N	0.970601	0.541636	0.924271
1649	H	0.98277	0.529344	0.92341
1650	H	0.966089	0.547366	0.89478
1651	N	0.934191	0.577324	0.754355
1652	H	0.922026	0.589619	0.75522
1653	H	0.938646	0.571539	0.783847
1654	N	0.970877	0.541409	0.753954
1655	H	0.983058	0.529125	0.754548
1656	H	0.966518	0.547109	0.783553
1657	C	0.970464	0.932106	0.005774
1658	C	0.961385	0.91394	0.963928
1659	C	0.943217	0.877606	0.964128
1660	C	0.934272	0.8597	0.006175
1661	C	0.94335	0.877866	0.714688
1662	C	0.961515	0.9142	0.714485
1663	N	0.934081	0.859357	0.924666
1664	H	0.939067	0.869408	0.895046
1665	H	0.921853	0.834901	0.924082
1666	N	0.970398	0.931947	0.924267
1667	H	0.982621	0.956398	0.923413
1668	H	0.965318	0.921714	0.894756
1669	N	0.93434	0.859862	0.754352
1670	H	0.922118	0.835408	0.755206
1671	H	0.939427	0.870092	0.78386
1672	N	0.970643	0.932447	0.75395
1673	H	0.982869	0.956902	0.754541
1674	H	0.965644	0.922396	0.78357
1675	C	0.825587	0.580207	0.673302
1676	C	0.809226	0.57822	0.715234
1677	C	0.777907	0.578278	0.715228
1678	C	0.763576	0.580421	0.673335
1679	C	0.777845	0.57819	0.964759
1680	C	0.809187	0.578172	0.964728
1681	N	0.761566	0.577478	0.75443
1682	H	0.76946	0.575896	0.784036
1683	H	0.739465	0.575615	0.754247
1684	N	0.824798	0.577496	0.754447
1685	H	0.845027	0.575615	0.754322
1686	H	0.815658	0.576575	0.78411
1687	N	0.761419	0.577223	0.925567
1688	H	0.739314	0.575348	0.925756
1689	H	0.769227	0.575459	0.895985
1690	N	0.824769	0.577491	0.925509
1691	H	0.845027	0.575663	0.925611
1692	H	0.815685	0.576686	0.895846
1693	C	0.931652	0.748393	0.673298
1694	C	0.933615	0.734009	0.715231
1695	C	0.933621	0.702675	0.715214
1696	C	0.931575	0.686284	0.673278
1697	C	0.933732	0.702743	0.964718
1698	C	0.933769	0.734095	0.964715
1699	N	0.934437	0.687152	0.75442
1700	H	0.935885	0.696557	0.784039
1701	H	0.936384	0.666972	0.754244
1702	N	0.934292	0.750269	0.754447
1703	H	0.936211	0.772385	0.754308
1704	H	0.935344	0.742121	0.7841
1705	N	0.934563	0.68723	0.925516
1706	H	0.936336	0.666952	0.925648
1707	H	0.935858	0.696554	0.89588
1708	N	0.934606	0.750443	0.92552
1709	H	0.936445	0.772524	0.925658
1710	H	0.935808	0.742371	0.895873
1711	C	0.763481	0.686374	0.673339
1712	C	0.77784	0.702735	0.715261
1713	C	0.809172	0.734072	0.715258
1714	C	0.825565	0.748401	0.673339
1715	C	0.809182	0.734064	0.964735
1716	C	0.777807	0.702766	0.964739
1717	N	0.824705	0.750408	0.754457
1718	H	0.815372	0.742394	0.784096
1719	H	0.844945	0.772493	0.754301
1720	N	0.761551	0.687159	0.754467
1721	H	0.739475	0.666906	0.754335
1722	H	0.769699	0.696362	0.78412
1723	N	0.824751	0.750337	0.92552
1724	H	0.845017	0.772397	0.925628
1725	H	0.815563	0.742167	0.895867
1726	N	0.76143	0.687281	0.925536
1727	H	0.739288	0.667111	0.925715
1728	H	0.769379	0.69668	0.895917
