data_C792H504N144_2018-02-15_10:43:32
#******************************************
#
# CIF file created by Zeo++
# Zeo++ is an open source package to
# analyze microporous materials
#
#*******************************************

_cell_length_a		46.516   
_cell_length_b		46.5161   
_cell_length_c		29.5946   
_cell_angle_alpha		90   
_cell_angle_beta		90   
_cell_angle_gamma		120   

_symmetry_space_group_name_H-M		'P1'
_symmetry_Int_Tables_number		1
_symmetry_cell_setting		Monoclinic

loop_
_symmetry_equiv_pos_as_xyz
'+x,+y,+z'

loop_
_atom_site_label
_atom_site_type_symbol
_atom_site_fract_x
_atom_site_fract_y
_atom_site_fract_z
1	C	0.028349	0.265881	0.017463
2	C	0.047626	0.301518	0.34947
3	C	0.082106	0.319322	0.340161
4	C	0.098574	0.301096	0.00162
5	C	0.08239	0.266428	0.007472
6	C	0.047685	0.24961	0.015403
7	H	0.036631	0.315628	0.352065
8	H	0.123832	0.313811	0.996819
9	H	0.036676	0.224471	0.017232
10	C	0.113836	0.241482	0.042144
11	C	0.102099	0.25098	0.003519
12	C	0.121825	0.258032	0.297466
13	N	0.151512	0.259365	0.298801
14	N	0.143942	0.242886	0.040162
15	H	0.116536	0.267093	0.269085
16	C	0.098907	0.235574	0.087786
17	H	0.07502	0.234568	0.088128
18	H	0.11567	0.255351	0.110568
19	H	0.095078	0.211926	0.100667
20	C	0.141251	0.403226	0.042218
21	C	0.149942	0.395565	0.297523
22	N	0.121636	0.365829	0.298698
23	C	0.101514	0.354212	0.002063
24	N	0.112553	0.373135	0.040068
25	C	0.15019	0.418157	0.087861
26	H	0.130336	0.42196	0.100664
27	C	0.028349	0.265881	0.350794
28	C	0.047626	0.301518	0.682801
29	C	0.082106	0.319322	0.673492
30	C	0.098574	0.301096	0.334955
31	C	0.08239	0.266428	0.340806
32	C	0.047685	0.24961	0.348736
33	H	0.036631	0.315628	0.6854
34	H	0.123832	0.313811	0.330151
35	H	0.036676	0.224471	0.350565
36	C	0.113836	0.241482	0.375478
37	C	0.102099	0.25098	0.336854
38	C	0.121825	0.258032	0.630799
39	N	0.151512	0.259365	0.632133
40	N	0.143942	0.242886	0.373494
41	H	0.116536	0.267093	0.602418
42	C	0.098907	0.235574	0.421118
43	H	0.07502	0.234568	0.421463
44	H	0.11567	0.255351	0.443899
45	H	0.095078	0.211926	0.433999
46	C	0.141251	0.403226	0.375549
47	C	0.149942	0.395565	0.630856
48	N	0.121636	0.365829	0.632032
49	C	0.101514	0.354212	0.335396
50	N	0.112553	0.373135	0.3734
51	C	0.15019	0.418157	0.421196
52	H	0.130336	0.42196	0.433995
53	C	0.028349	0.265881	0.684129
54	C	0.047626	0.301518	0.016136
55	C	0.082106	0.319322	0.006827
56	C	0.098574	0.301096	0.668289
57	C	0.08239	0.266428	0.674138
58	C	0.047685	0.24961	0.682068
59	H	0.036631	0.315628	0.018733
60	H	0.123832	0.313811	0.663484
61	H	0.036676	0.224471	0.683896
62	C	0.113836	0.241482	0.70881
63	C	0.102099	0.25098	0.670188
64	C	0.121825	0.258032	0.96413
65	N	0.151512	0.259365	0.965468
66	N	0.143942	0.242886	0.706829
67	H	0.116536	0.267093	0.93575
68	C	0.098907	0.235574	0.754453
69	H	0.07502	0.234568	0.754794
70	H	0.11567	0.255351	0.777234
71	H	0.095078	0.211926	0.767334
72	C	0.141251	0.403226	0.708884
73	C	0.149942	0.395565	0.964188
74	N	0.121636	0.365829	0.965363
75	C	0.101514	0.354212	0.668728
76	N	0.112553	0.373135	0.706735
77	C	0.15019	0.418157	0.754527
78	H	0.130336	0.42196	0.76733
79	C	0.028349	0.765882	0.017463
80	C	0.047624	0.801517	0.34947
81	C	0.082105	0.819323	0.340161
82	C	0.098573	0.801097	0.00162
83	C	0.082391	0.766429	0.007472
84	C	0.047684	0.749608	0.015403
85	H	0.03663	0.815629	0.352065
86	H	0.12383	0.81381	0.996819
87	H	0.036677	0.724472	0.017232
88	C	0.113835	0.741481	0.042144
89	C	0.102101	0.750981	0.003519
90	C	0.121824	0.758031	0.297466
91	N	0.151511	0.759364	0.298801
92	N	0.143941	0.742886	0.040162
93	H	0.116536	0.767094	0.269085
94	C	0.098907	0.735573	0.087786
95	H	0.075019	0.734567	0.088128
96	H	0.11567	0.755352	0.110568
97	H	0.095078	0.711926	0.100667
98	C	0.141251	0.903227	0.042218
99	C	0.149942	0.895564	0.297523
100	N	0.121637	0.86583	0.298698
101	C	0.101515	0.854213	0.002063
102	N	0.112551	0.873133	0.040068
103	C	0.150189	0.918156	0.087861
104	H	0.130334	0.921959	0.100664
105	C	0.028349	0.765882	0.350794
106	C	0.047624	0.801517	0.682801
107	C	0.082105	0.819323	0.673492
108	C	0.098573	0.801097	0.334955
109	C	0.082391	0.766429	0.340806
110	C	0.047684	0.749608	0.348736
111	H	0.03663	0.815629	0.6854
112	H	0.12383	0.81381	0.330151
113	H	0.036677	0.724472	0.350565
114	C	0.113835	0.741481	0.375478
115	C	0.102101	0.750981	0.336854
116	C	0.121824	0.758031	0.630799
117	N	0.151511	0.759364	0.632133
118	N	0.143941	0.742886	0.373494
119	H	0.116536	0.767094	0.602418
120	C	0.098907	0.735573	0.421118
121	H	0.075019	0.734567	0.421463
122	H	0.11567	0.755352	0.443899
123	H	0.095078	0.711926	0.433999
124	C	0.141251	0.903227	0.375549
125	C	0.149942	0.895564	0.630856
126	N	0.121637	0.86583	0.632032
127	C	0.101515	0.854213	0.335396
128	N	0.112551	0.873133	0.3734
129	C	0.150189	0.918156	0.421196
130	H	0.130334	0.921959	0.433995
131	C	0.028349	0.765882	0.684129
132	C	0.047624	0.801517	0.016136
133	C	0.082105	0.819323	0.006827
134	C	0.098573	0.801097	0.668289
135	C	0.082391	0.766429	0.674138
136	C	0.047684	0.749608	0.682068
137	H	0.03663	0.815629	0.018733
138	H	0.12383	0.81381	0.663484
139	H	0.036677	0.724472	0.683896
140	C	0.113835	0.741481	0.70881
141	C	0.102101	0.750981	0.670188
142	C	0.121824	0.758031	0.96413
143	N	0.151511	0.759364	0.965468
144	N	0.143941	0.742886	0.706829
145	H	0.116536	0.767094	0.93575
146	C	0.098907	0.735573	0.754453
147	H	0.075019	0.734567	0.754794
148	H	0.11567	0.755352	0.777234
149	H	0.095078	0.711926	0.767334
150	C	0.141251	0.903227	0.708884
151	C	0.149942	0.895564	0.964188
152	N	0.121637	0.86583	0.965363
153	C	0.101515	0.854213	0.668728
154	N	0.112551	0.873133	0.706735
155	C	0.150189	0.918156	0.754527
156	H	0.130334	0.921959	0.76733
157	C	0.253039	0.212248	0.01552
158	H	0.227896	0.198155	0.017286
159	C	0.251276	0.265867	0.01758
160	C	0.21564	0.24954	0.349605
161	C	0.197859	0.266274	0.340546
162	C	0.216108	0.300982	0.002222
163	C	0.2508	0.319401	0.00783
164	H	0.201504	0.224429	0.352055
165	H	0.203417	0.313555	0.997491
166	C	0.253021	0.044256	0.349574
167	H	0.227937	0.033314	0.352474
168	C	0.251255	0.488833	0.017523
169	C	0.250803	0.435003	0.340431
170	C	0.216103	0.418567	0.001992
171	C	0.197689	0.434849	0.007571
172	C	0.215644	0.469567	0.015374
173	H	0.203513	0.393309	0.997187
174	H	0.201567	0.480636	0.017119
175	C	0.162984	0.250796	0.002262
176	H	0.250003	0.35263	0.269472
177	C	0.162526	0.41526	0.003664
178	H	0.164376	0.400984	0.269206
179	H	0.173061	0.442055	0.088237
180	H	0.153188	0.401401	0.110679
181	C	0.244647	0.137801	0.042218
182	N	0.246076	0.109123	0.040144
183	C	0.238406	0.14666	0.087768
184	H	0.237419	0.169552	0.088091
185	H	0.214659	0.126802	0.100324
186	C	0.253039	0.212248	0.348851
187	H	0.227896	0.198155	0.350619
188	C	0.251276	0.265867	0.350913
189	C	0.21564	0.24954	0.682937
190	C	0.197859	0.266274	0.673881
191	C	0.216108	0.300982	0.335557
192	C	0.2508	0.319401	0.341164
193	H	0.201504	0.224429	0.68539
194	H	0.203417	0.313555	0.330825
195	C	0.253021	0.044256	0.682909
196	H	0.227937	0.033314	0.685809
197	C	0.251255	0.488833	0.350855
198	C	0.250803	0.435003	0.673763
199	C	0.216103	0.418567	0.335326
200	C	0.197689	0.434849	0.340904
201	C	0.215644	0.469567	0.348706
202	H	0.203513	0.393309	0.330522
203	H	0.201567	0.480636	0.350453
204	C	0.162984	0.250796	0.335596
205	H	0.250003	0.35263	0.602804
206	C	0.162526	0.41526	0.336997
207	H	0.164376	0.400984	0.60254
208	H	0.173061	0.442055	0.421571
209	H	0.153188	0.401401	0.444011
210	C	0.244647	0.137801	0.375552
211	N	0.246076	0.109123	0.373478
212	C	0.238406	0.14666	0.421101
213	H	0.237419	0.169552	0.421422
214	H	0.214659	0.126802	0.433658
215	C	0.253039	0.212248	0.682186
216	H	0.227896	0.198155	0.683954
217	C	0.251276	0.265867	0.684244
218	C	0.21564	0.24954	0.016272
219	C	0.197859	0.266274	0.007214
220	C	0.216108	0.300982	0.66889
221	C	0.2508	0.319401	0.674496
222	H	0.201504	0.224429	0.018723
223	H	0.203417	0.313555	0.664159
224	C	0.253021	0.044256	0.016243
225	H	0.227937	0.033314	0.019142
226	C	0.251255	0.488833	0.684187
227	C	0.250803	0.435003	0.007098
228	C	0.216103	0.418567	0.66866
229	C	0.197689	0.434849	0.674236
230	C	0.215644	0.469567	0.682041
231	H	0.203513	0.393309	0.663855
232	H	0.201567	0.480636	0.683785
233	C	0.162984	0.250796	0.668927
234	H	0.250003	0.35263	0.936139
235	C	0.162526	0.41526	0.670329
236	H	0.164376	0.400984	0.935872
237	H	0.173061	0.442055	0.754902
238	H	0.153188	0.401401	0.777346
239	C	0.244647	0.137801	0.708884
240	N	0.246076	0.109123	0.706809
241	C	0.238406	0.14666	0.754433
242	H	0.237419	0.169552	0.754757
243	H	0.214659	0.126802	0.766989
244	C	0.253038	0.712248	0.01552
245	H	0.227896	0.698156	0.017286
246	C	0.251275	0.765865	0.01758
247	C	0.21564	0.749539	0.349605
248	C	0.197858	0.766272	0.340546
249	C	0.216107	0.800981	0.002222
250	C	0.2508	0.819402	0.00783
251	H	0.201504	0.724429	0.352055
252	H	0.203417	0.813556	0.997491
253	C	0.253021	0.544257	0.349574
254	H	0.227936	0.533314	0.352474
255	C	0.251254	0.988831	0.017523
256	C	0.250801	0.935001	0.340431
257	C	0.216103	0.918568	0.001992
258	C	0.19769	0.93485	0.007571
259	C	0.215643	0.969566	0.015374
260	H	0.203513	0.89331	0.997187
261	H	0.201565	0.980635	0.017119
262	C	0.162984	0.750797	0.002262
263	H	0.250002	0.852629	0.269472
264	C	0.162525	0.915259	0.003664
265	H	0.164375	0.900983	0.269206
266	H	0.173062	0.942056	0.088237
267	H	0.153188	0.901402	0.110679
268	C	0.244646	0.6378	0.042218
269	N	0.246076	0.609123	0.040144
270	C	0.238406	0.646659	0.087768
271	H	0.237419	0.669552	0.088091
272	H	0.214658	0.6268	0.100324
273	C	0.253038	0.712248	0.348851
274	H	0.227896	0.698156	0.350619
275	C	0.251275	0.765865	0.350913
276	C	0.21564	0.749539	0.682937
277	C	0.197858	0.766272	0.673881
278	C	0.216107	0.800981	0.335557
279	C	0.2508	0.819402	0.341164
280	H	0.201504	0.724429	0.68539
281	H	0.203417	0.813556	0.330825
282	C	0.253021	0.544257	0.682909
283	H	0.227936	0.533314	0.685809
284	C	0.251254	0.988831	0.350855
285	C	0.250801	0.935001	0.673763
286	C	0.216103	0.918568	0.335326
287	C	0.19769	0.93485	0.340904
288	C	0.215643	0.969566	0.348706
289	H	0.203513	0.89331	0.330522
290	H	0.201565	0.980635	0.350453
291	C	0.162984	0.750797	0.335596
292	H	0.250002	0.852629	0.602804
293	C	0.162525	0.915259	0.336997
294	H	0.164375	0.900983	0.60254
295	H	0.173062	0.942056	0.421571
296	H	0.153188	0.901402	0.444011
297	C	0.244646	0.6378	0.375552
298	N	0.246076	0.609123	0.373478
299	C	0.238406	0.646659	0.421101
300	H	0.237419	0.669552	0.421422
301	H	0.214658	0.6268	0.433658
302	C	0.253038	0.712248	0.682186
303	H	0.227896	0.698156	0.683954
304	C	0.251275	0.765865	0.684244
305	C	0.21564	0.749539	0.016272
306	C	0.197858	0.766272	0.007214
307	C	0.216107	0.800981	0.66889
308	C	0.2508	0.819402	0.674496
309	H	0.201504	0.724429	0.018723
310	H	0.203417	0.813556	0.664159
311	C	0.253021	0.544257	0.016243
312	H	0.227936	0.533314	0.019142
313	C	0.251254	0.988831	0.684187
314	C	0.250801	0.935001	0.007098
315	C	0.216103	0.918568	0.66866
316	C	0.19769	0.93485	0.674236
317	C	0.215643	0.969566	0.682041
318	H	0.203513	0.89331	0.663855
319	H	0.201565	0.980635	0.683785
320	C	0.162984	0.750797	0.668927
321	H	0.250002	0.852629	0.936139
322	C	0.162525	0.915259	0.670329
323	H	0.164375	0.900983	0.935872
324	H	0.173062	0.942056	0.754902
325	H	0.153188	0.901402	0.777346
326	C	0.244646	0.6378	0.708884
327	N	0.246076	0.609123	0.706809
328	C	0.238406	0.646659	0.754433
329	H	0.237419	0.669552	0.754757
330	H	0.214658	0.6268	0.766989
331	C	0.269364	0.247855	0.017553
332	C	0.269807	0.194314	0.007642
333	C	0.304494	0.212741	0.001945
334	C	0.322765	0.247442	0.34038
335	C	0.304999	0.264174	0.349571
336	H	0.319139	0.28928	0.352095
337	H	0.317176	0.200158	0.997234
338	C	0.267593	0.301471	0.015546
339	H	0.292735	0.315564	0.01734
340	C	0.269323	0.024931	0.017489
341	C	0.304933	0.044204	0.01532
342	C	0.322863	0.078907	0.007377
343	C	0.304422	0.095145	0.001651
344	C	0.269725	0.078719	0.340194
345	H	0.319024	0.033147	0.017029
346	H	0.317004	0.120404	0.996852
347	C	0.267551	0.4695	0.349585
348	H	0.292646	0.48045	0.352315
349	C	0.275785	0.375883	0.042339
350	C	0.266384	0.354557	0.003847
351	C	0.259244	0.367105	0.297712
352	N	0.257688	0.395337	0.299042
353	C	0.266229	0.415573	0.002309
354	N	0.274273	0.404514	0.040182
355	C	0.281767	0.366981	0.088008
356	H	0.282859	0.344143	0.0884
357	H	0.261977	0.363932	0.110789
358	H	0.305394	0.386872	0.100836
359	C	0.254221	0.159144	0.003739
360	C	0.261449	0.146628	0.297639
361	N	0.262955	0.11837	0.299028
362	C	0.254267	0.098152	0.00235
363	H	0.270762	0.16111	0.269418
364	H	0.25801	0.149577	0.110817
365	C	0.269364	0.247855	0.350886
366	C	0.269807	0.194314	0.340975
367	C	0.304494	0.212741	0.33528
368	C	0.322765	0.247442	0.673712
369	C	0.304999	0.264174	0.682906
370	H	0.319139	0.28928	0.685427
371	H	0.317176	0.200158	0.330568
372	C	0.267593	0.301471	0.348878
373	H	0.292735	0.315564	0.350673
374	C	0.269323	0.024931	0.350821
375	C	0.304933	0.044204	0.348652
376	C	0.322863	0.078907	0.340711
377	C	0.304422	0.095145	0.334986
378	C	0.269725	0.078719	0.673529
379	H	0.319024	0.033147	0.350362
380	H	0.317004	0.120404	0.330188
381	C	0.267551	0.4695	0.682916
382	H	0.292646	0.48045	0.685646
383	C	0.275785	0.375883	0.37567
384	C	0.266384	0.354557	0.337181
385	C	0.259244	0.367105	0.631045
386	N	0.257688	0.395337	0.632377
387	C	0.266229	0.415573	0.335645
388	N	0.274273	0.404514	0.373515
389	C	0.281767	0.366981	0.421341
390	H	0.282859	0.344143	0.421733
391	H	0.261977	0.363932	0.444122
392	H	0.305394	0.386872	0.434168
393	C	0.254221	0.159144	0.337072
394	C	0.261449	0.146628	0.630971
395	N	0.262955	0.11837	0.63236
396	C	0.254267	0.098152	0.335685
397	H	0.270762	0.16111	0.602749
398	H	0.25801	0.149577	0.444149
399	C	0.269364	0.247855	0.684217
400	C	0.269807	0.194314	0.674307
401	C	0.304494	0.212741	0.668613
402	C	0.322765	0.247442	0.007048
403	C	0.304999	0.264174	0.01624
404	H	0.319139	0.28928	0.018763
405	H	0.317176	0.200158	0.663899
406	C	0.267593	0.301471	0.682213
407	H	0.292735	0.315564	0.684004
408	C	0.269323	0.024931	0.684153
409	C	0.304933	0.044204	0.681987
410	C	0.322863	0.078907	0.674043
411	C	0.304422	0.095145	0.668319
412	C	0.269725	0.078719	0.006863
413	H	0.319024	0.033147	0.683693
414	H	0.317004	0.120404	0.663521
415	C	0.267551	0.4695	0.016251
416	H	0.292646	0.48045	0.018982
417	C	0.275785	0.375883	0.709005
418	C	0.266384	0.354557	0.670515
419	C	0.259244	0.367105	0.964377
420	N	0.257688	0.395337	0.965708
421	C	0.266229	0.415573	0.668978
422	N	0.274273	0.404514	0.706846
423	C	0.281767	0.366981	0.754673
424	H	0.282859	0.344143	0.755065
425	H	0.261977	0.363932	0.777454
426	H	0.305394	0.386872	0.767503
427	C	0.254221	0.159144	0.670404
428	C	0.261449	0.146628	0.964306
429	N	0.262955	0.11837	0.965695
430	C	0.254267	0.098152	0.669018
431	H	0.270762	0.16111	0.936084
432	H	0.25801	0.149577	0.777484
433	C	0.269364	0.747856	0.017553
434	C	0.269806	0.694313	0.007642
435	C	0.304493	0.71274	0.001945
436	C	0.322764	0.747441	0.34038
437	C	0.304998	0.764172	0.349571
438	H	0.319138	0.789279	0.352095
439	H	0.317176	0.700157	0.997234
440	C	0.267593	0.801472	0.015546
441	H	0.292735	0.815565	0.01734
442	C	0.269323	0.524929	0.017489
443	C	0.304933	0.544202	0.01532
444	C	0.322863	0.578906	0.007377
445	C	0.304421	0.595145	0.001651
446	C	0.269726	0.578719	0.340194
447	H	0.319022	0.533146	0.017029
448	H	0.317004	0.620403	0.996852
449	C	0.267552	0.969501	0.349585
450	H	0.292647	0.980451	0.352315
451	C	0.275784	0.875881	0.042339
452	C	0.266383	0.854555	0.003847
453	C	0.259243	0.867103	0.297712
454	N	0.257687	0.895335	0.299042
455	C	0.26623	0.915574	0.002309
456	N	0.274273	0.904515	0.040182
457	C	0.281767	0.866982	0.088008
458	H	0.28286	0.844144	0.0884
459	H	0.261976	0.863931	0.110789
460	H	0.305393	0.886871	0.100836
461	C	0.25422	0.659143	0.003739
462	C	0.261448	0.646627	0.297639
463	N	0.262955	0.61837	0.299028
464	C	0.254266	0.598151	0.00235
465	H	0.270761	0.661109	0.269418
466	H	0.25801	0.649576	0.110817
467	C	0.269364	0.747856	0.350886
468	C	0.269806	0.694313	0.340975
469	C	0.304493	0.71274	0.33528
470	C	0.322764	0.747441	0.673712
471	C	0.304998	0.764172	0.682906
472	H	0.319138	0.789279	0.685427
473	H	0.317176	0.700157	0.330568
474	C	0.267593	0.801472	0.348878
475	H	0.292735	0.815565	0.350673
476	C	0.269323	0.524929	0.350821
477	C	0.304933	0.544202	0.348652
478	C	0.322863	0.578906	0.340711
479	C	0.304421	0.595145	0.334986
480	C	0.269726	0.578719	0.673529
481	H	0.319022	0.533146	0.350362
482	H	0.317004	0.620403	0.330188
483	C	0.267552	0.969501	0.682916
484	H	0.292647	0.980451	0.685646
485	C	0.275784	0.875881	0.37567
486	C	0.266383	0.854555	0.337181
487	C	0.259243	0.867103	0.631045
488	N	0.257687	0.895335	0.632377
489	C	0.26623	0.915574	0.335644
490	N	0.274273	0.904515	0.373515
491	C	0.281767	0.866982	0.421341
492	H	0.28286	0.844144	0.421733
493	H	0.261976	0.863931	0.444122
494	H	0.305393	0.886871	0.434168
495	C	0.25422	0.659143	0.337072
496	C	0.261448	0.646627	0.630971
497	N	0.262955	0.61837	0.63236
498	C	0.254266	0.598151	0.335685
499	H	0.270761	0.661109	0.602749
500	H	0.25801	0.649576	0.444149
501	C	0.269364	0.747856	0.684217
502	C	0.269806	0.694313	0.674307
503	C	0.304493	0.71274	0.668613
504	C	0.322764	0.747441	0.007048
505	C	0.304998	0.764172	0.01624
506	H	0.319138	0.789279	0.018763
507	H	0.317176	0.700157	0.663899
508	C	0.267593	0.801472	0.682213
509	H	0.292735	0.815565	0.684004
510	C	0.269323	0.524929	0.684153
511	C	0.304933	0.544202	0.681987
512	C	0.322863	0.578906	0.674043
513	C	0.304421	0.595145	0.668319
514	C	0.269726	0.578719	0.006863
515	H	0.319022	0.533146	0.683693
516	H	0.317004	0.620403	0.663521
517	C	0.267552	0.969501	0.016251
518	H	0.292647	0.980451	0.018982
519	C	0.275784	0.875881	0.709005
520	C	0.266383	0.854555	0.670515
521	C	0.259243	0.867103	0.964377
522	N	0.257687	0.895335	0.965708
523	C	0.26623	0.915574	0.668978
524	N	0.274273	0.904515	0.706846
525	C	0.281767	0.866982	0.754673
526	H	0.28286	0.844144	0.755065
527	H	0.261976	0.863931	0.777454
528	H	0.305393	0.886871	0.767503
529	C	0.25422	0.659143	0.670404
530	C	0.261448	0.646627	0.964306
531	N	0.262955	0.61837	0.965695
532	C	0.254266	0.598151	0.669018
533	H	0.270761	0.661109	0.936084
534	H	0.25801	0.649576	0.777484
535	C	0.492247	0.247771	0.017469
536	C	0.472913	0.264047	0.01546
537	C	0.438197	0.247234	0.007634
538	C	0.421989	0.212552	0.001897
539	C	0.43847	0.194328	0.340289
540	C	0.472973	0.212135	0.349449
541	H	0.48393	0.289186	0.017303
542	H	0.483975	0.198026	0.351933
543	H	0.396724	0.199832	0.997177
544	C	0.406775	0.272313	0.042215
545	C	0.418522	0.262734	0.003715
546	C	0.398837	0.255565	0.297588
547	N	0.369151	0.254237	0.298812
548	C	0.357646	0.26288	0.002171
549	N	0.376671	0.270906	0.040107
550	H	0.404154	0.246463	0.269268
551	C	0.421707	0.278306	0.087856
552	H	0.445573	0.279266	0.088237
553	H	0.404928	0.258596	0.110708
554	H	0.425579	0.302	0.100611
555	C	0.379229	0.110381	0.042104
556	C	0.358036	0.098589	0.003462
557	C	0.370666	0.118222	0.297316
558	N	0.399009	0.14792	0.298633
559	C	0.419075	0.159445	0.00207
560	N	0.407957	0.140456	0.040024
561	H	0.356251	0.112867	0.268991
562	C	0.370241	0.095392	0.087711
563	H	0.347334	0.071527	0.088048
564	H	0.367291	0.112151	0.110581
565	H	0.39005	0.091507	0.100484
566	C	0.492247	0.247771	0.350801
567	C	0.472913	0.264047	0.348794
568	C	0.438197	0.247234	0.340968
569	C	0.421989	0.212552	0.335231
570	C	0.43847	0.194328	0.673624
571	C	0.472973	0.212135	0.682784
572	H	0.48393	0.289186	0.350635
573	H	0.483975	0.198026	0.685268
574	H	0.396724	0.199832	0.330511
575	C	0.406775	0.272313	0.375549
576	C	0.418522	0.262734	0.33705
577	C	0.398837	0.255565	0.63092
578	N	0.369151	0.254237	0.632143
579	C	0.357646	0.26288	0.335505
580	N	0.376671	0.270906	0.37344
581	H	0.404154	0.246463	0.602601
582	C	0.421707	0.278306	0.421189
583	H	0.445573	0.279266	0.421571
584	H	0.404928	0.258596	0.444041
585	H	0.425579	0.302	0.433945
586	C	0.379229	0.110381	0.375437
587	C	0.358036	0.098589	0.336795
588	C	0.370666	0.118222	0.630646
589	N	0.399009	0.14792	0.631964
590	C	0.419075	0.159445	0.335405
591	N	0.407957	0.140456	0.373356
592	H	0.356251	0.112867	0.602324
593	C	0.370241	0.095392	0.421044
594	H	0.347334	0.071527	0.421382
595	H	0.367291	0.112151	0.443913
596	H	0.39005	0.091507	0.433816
597	C	0.492247	0.247771	0.684136
598	C	0.472913	0.264047	0.682126
599	C	0.438197	0.247234	0.6743
600	C	0.421989	0.212552	0.668562
601	C	0.43847	0.194328	0.006958
602	C	0.472973	0.212135	0.016118
603	H	0.48393	0.289186	0.683967
604	H	0.483975	0.198026	0.018601
605	H	0.396724	0.199832	0.663845
606	C	0.406775	0.272313	0.70888
607	C	0.418522	0.262734	0.670384
608	C	0.398837	0.255565	0.964252
609	N	0.369151	0.254237	0.965478
610	C	0.357646	0.26288	0.668839
611	N	0.376671	0.270906	0.706772
612	H	0.404154	0.246463	0.935932
613	C	0.421707	0.278306	0.754521
614	H	0.445573	0.279266	0.754902
615	H	0.404928	0.258596	0.777373
616	H	0.425579	0.302	0.767276
617	C	0.379229	0.110381	0.708769
618	C	0.358036	0.098589	0.670127
619	C	0.370666	0.118222	0.963981
620	N	0.399009	0.14792	0.965299
621	C	0.419075	0.159445	0.668738
622	N	0.407957	0.140456	0.706691
623	H	0.356251	0.112867	0.935659
624	C	0.370241	0.095392	0.754379
625	H	0.347334	0.071527	0.754713
626	H	0.367291	0.112151	0.777248
627	H	0.39005	0.091507	0.767148
628	C	0.492247	0.747771	0.017469
629	C	0.472912	0.764046	0.01546
630	C	0.438196	0.747235	0.007634
631	C	0.421988	0.712551	0.001897
632	C	0.438471	0.694328	0.340289
633	C	0.472972	0.712134	0.349449
634	H	0.48393	0.789184	0.017303
635	H	0.483975	0.698024	0.351933
636	H	0.396723	0.699832	0.997177
637	C	0.406774	0.772312	0.042214
638	C	0.418522	0.762732	0.003715
639	C	0.398836	0.755563	0.297588
640	N	0.36915	0.754235	0.298812
641	C	0.357645	0.762881	0.002171
642	N	0.376669	0.770904	0.040107
643	H	0.404155	0.746463	0.269268
644	C	0.421707	0.778307	0.087856
645	H	0.445573	0.779265	0.088237
646	H	0.404927	0.758597	0.110708
647	H	0.42558	0.802001	0.100611
648	C	0.379229	0.610379	0.042104
649	C	0.358034	0.598588	0.003462
650	C	0.370665	0.618221	0.297316
651	N	0.39901	0.64792	0.298633
652	C	0.419076	0.659446	0.00207
653	N	0.407957	0.640456	0.040024
654	H	0.35625	0.612867	0.268991
655	C	0.37024	0.595391	0.087711
656	H	0.347333	0.571525	0.088048
657	H	0.367291	0.612149	0.110581
658	H	0.390049	0.591506	0.100484
659	C	0.492247	0.747771	0.350801
660	C	0.472912	0.764046	0.348794
661	C	0.438196	0.747235	0.340968
662	C	0.421988	0.712551	0.335231
663	C	0.438471	0.694328	0.673624
664	C	0.472972	0.712134	0.682784
665	H	0.48393	0.789184	0.350635
666	H	0.483975	0.698024	0.685268
667	H	0.396723	0.699832	0.330511
668	C	0.406774	0.772312	0.375545
669	C	0.418522	0.762732	0.33705
670	C	0.398836	0.755563	0.63092
671	N	0.36915	0.754235	0.632143
672	C	0.357645	0.762881	0.335505
673	N	0.376669	0.770904	0.37344
674	H	0.404155	0.746463	0.602601
675	C	0.421707	0.778307	0.421189
676	H	0.445573	0.779265	0.421571
677	H	0.404927	0.758597	0.444041
678	H	0.42558	0.802001	0.433945
679	C	0.379229	0.610379	0.375437
680	C	0.358034	0.598588	0.336795
681	C	0.370665	0.618221	0.63065
682	N	0.39901	0.64792	0.631964
683	C	0.419076	0.659446	0.335405
684	N	0.407957	0.640456	0.373356
685	H	0.35625	0.612867	0.602324
686	C	0.37024	0.595391	0.421044
687	H	0.347333	0.571525	0.421382
688	H	0.367291	0.612149	0.443913
689	H	0.390049	0.591506	0.433816
690	C	0.492247	0.747771	0.684136
691	C	0.472912	0.764046	0.682126
692	C	0.438196	0.747235	0.6743
693	C	0.421988	0.712551	0.668562
694	C	0.438471	0.694328	0.006958
695	C	0.472972	0.712134	0.016118
696	H	0.48393	0.789184	0.683967
697	H	0.483975	0.698024	0.018601
698	H	0.396723	0.699832	0.663845
699	C	0.406774	0.772312	0.70888
700	C	0.418522	0.762732	0.670384
701	C	0.398836	0.755563	0.964252
702	N	0.36915	0.754235	0.965478
703	C	0.357645	0.762881	0.668839
704	N	0.376669	0.770904	0.706772
705	H	0.404155	0.746463	0.935932
706	C	0.421707	0.778307	0.754521
707	H	0.445573	0.779265	0.754902
708	H	0.404927	0.758597	0.777373
709	H	0.42558	0.802001	0.767276
710	C	0.379229	0.610379	0.708769
711	C	0.358034	0.598588	0.670127
712	C	0.370665	0.618221	0.963981
713	N	0.39901	0.64792	0.965299
714	C	0.419076	0.659446	0.668738
715	N	0.407957	0.640456	0.706691
716	H	0.35625	0.612867	0.935659
717	C	0.37024	0.595391	0.754379
718	H	0.347333	0.571525	0.754713
719	H	0.367291	0.612149	0.777248
720	H	0.390049	0.591506	0.767148
721	C	0.992247	0.247771	0.017469
722	C	0.972913	0.264047	0.01546
723	C	0.938197	0.247234	0.007634
724	C	0.921989	0.212552	0.001897
725	C	0.938472	0.194328	0.340289
726	C	0.972973	0.212135	0.349449
727	H	0.983932	0.289186	0.017303
728	H	0.983975	0.198026	0.351933
729	H	0.896724	0.199832	0.997177
730	C	0.528351	0.265881	0.017463
731	C	0.547627	0.301518	0.34947
732	C	0.582107	0.319322	0.340161
733	C	0.598575	0.301096	0.00162
734	C	0.58239	0.266428	0.007472
735	C	0.547685	0.24961	0.015403
736	H	0.536632	0.315628	0.352065
737	H	0.623833	0.313811	0.996819
738	H	0.536677	0.224471	0.017232
739	C	0.769363	0.247855	0.017553
740	C	0.753039	0.212248	0.01552
741	C	0.769807	0.194314	0.007642
742	C	0.804494	0.212741	0.001945
743	C	0.822766	0.247442	0.34038
744	C	0.804999	0.264174	0.349571
745	H	0.727898	0.198155	0.017286
746	H	0.819139	0.28928	0.352095
747	H	0.817176	0.200158	0.997234
748	C	0.751278	0.265867	0.01758
749	C	0.715642	0.24954	0.349605
750	C	0.697859	0.266274	0.340546
751	C	0.716107	0.300982	0.002222
752	C	0.7508	0.319401	0.00783
753	C	0.767592	0.301471	0.015546
754	H	0.701504	0.224429	0.352055
755	H	0.703418	0.313555	0.997491
756	H	0.792735	0.315564	0.01734
757	C	0.769325	0.024931	0.017489
758	C	0.804936	0.044204	0.01532
759	C	0.822865	0.078907	0.007377
760	C	0.804422	0.095145	0.001651
761	C	0.769727	0.078719	0.340194
762	C	0.753023	0.044256	0.349574
763	H	0.819024	0.033147	0.017029
764	H	0.727937	0.033314	0.352474
765	H	0.817004	0.120404	0.996852
766	C	0.751255	0.488833	0.017523
767	C	0.767552	0.4695	0.349585
768	C	0.750804	0.435003	0.340431
769	C	0.716103	0.418567	0.001992
770	C	0.697689	0.434849	0.007571
771	C	0.715644	0.469567	0.015374
772	H	0.792648	0.48045	0.352315
773	H	0.703512	0.393309	0.997187
774	H	0.701568	0.480636	0.017119
775	C	0.613836	0.241482	0.042144
776	C	0.6021	0.25098	0.003519
777	C	0.621825	0.258032	0.297466
778	N	0.651512	0.259365	0.298801
779	C	0.662985	0.250796	0.002262
780	N	0.643943	0.242886	0.040162
781	H	0.616537	0.267093	0.269085
782	C	0.598908	0.235574	0.087786
783	H	0.575021	0.234568	0.088128
784	H	0.615671	0.255351	0.110568
785	H	0.595079	0.211926	0.100667
786	C	0.775786	0.375883	0.042339
787	C	0.766385	0.354557	0.003847
788	C	0.759245	0.367105	0.297712
789	N	0.757689	0.395337	0.299042
790	C	0.766229	0.415573	0.002309
791	N	0.774273	0.404514	0.040182
792	H	0.750004	0.35263	0.269472
793	C	0.781768	0.366981	0.088008
794	H	0.782859	0.344143	0.0884
795	H	0.761977	0.363932	0.110789
796	H	0.805395	0.386872	0.100836
797	C	0.641251	0.403226	0.042218
798	C	0.662525	0.41526	0.003664
799	C	0.649943	0.395565	0.297523
800	N	0.621637	0.365829	0.298698
801	C	0.601515	0.354212	0.002063
802	N	0.612554	0.373135	0.040068
803	H	0.664376	0.400984	0.269206
804	C	0.650189	0.418157	0.087861
805	H	0.673061	0.442055	0.088237
806	H	0.653188	0.401401	0.110679
807	H	0.630337	0.42196	0.100664
808	C	0.906775	0.272313	0.042215
809	C	0.918524	0.262734	0.003715
810	C	0.898837	0.255565	0.297588
811	N	0.869151	0.254237	0.298812
812	C	0.857646	0.26288	0.002171
813	N	0.876671	0.270906	0.040107
814	H	0.904156	0.246463	0.269268
815	C	0.921707	0.278306	0.087856
816	H	0.945575	0.279266	0.088237
817	H	0.904928	0.258596	0.110708
818	H	0.925581	0.302	0.100611
819	C	0.744646	0.137801	0.042218
820	C	0.754222	0.159144	0.003739
821	C	0.761449	0.146628	0.297639
822	N	0.762956	0.11837	0.299028
823	C	0.754268	0.098152	0.00235
824	N	0.746076	0.109123	0.040144
825	H	0.770763	0.16111	0.269418
826	C	0.738407	0.14666	0.087768
827	H	0.73742	0.169552	0.088091
828	H	0.758011	0.149577	0.110817
829	H	0.714661	0.126802	0.100324
830	C	0.879229	0.110381	0.042104
831	C	0.858036	0.098589	0.003462
832	C	0.870666	0.118222	0.297316
833	N	0.899009	0.14792	0.298633
834	C	0.919077	0.159445	0.00207
835	N	0.907957	0.140456	0.040024
836	H	0.856251	0.112867	0.268991
837	C	0.870241	0.095392	0.087711
838	H	0.847334	0.071527	0.088048
839	H	0.867293	0.112151	0.110581
840	H	0.89005	0.091507	0.100484
841	C	0.992247	0.247771	0.350801
842	C	0.972913	0.264047	0.348794
843	C	0.938197	0.247234	0.340968
844	C	0.921989	0.212552	0.335231
845	C	0.938472	0.194328	0.673624
846	C	0.972973	0.212135	0.682784
847	H	0.983932	0.289186	0.350635
848	H	0.983975	0.198026	0.685268
849	H	0.896724	0.199832	0.330511
850	C	0.528351	0.265881	0.350794
851	C	0.547627	0.301518	0.682801
852	C	0.582107	0.319322	0.673492
853	C	0.598575	0.301096	0.334955
854	C	0.58239	0.266428	0.340806
855	C	0.547685	0.24961	0.348736
856	H	0.536632	0.315628	0.6854
857	H	0.623833	0.313811	0.330151
858	H	0.536677	0.224471	0.350565
859	C	0.769363	0.247855	0.350886
860	C	0.753039	0.212248	0.348851
861	C	0.769807	0.194314	0.340975
862	C	0.804494	0.212741	0.33528
863	C	0.822766	0.247442	0.673712
864	C	0.804999	0.264174	0.682906
865	H	0.727898	0.198155	0.350619
866	H	0.819139	0.28928	0.685427
867	H	0.817176	0.200158	0.330568
868	C	0.751278	0.265867	0.350913
869	C	0.715642	0.24954	0.682937
870	C	0.697859	0.266274	0.673881
871	C	0.716107	0.300982	0.335557
872	C	0.7508	0.319401	0.341164
873	C	0.767592	0.301471	0.348878
874	H	0.701504	0.224429	0.68539
875	H	0.703418	0.313555	0.330825
876	H	0.792735	0.315564	0.350673
877	C	0.769325	0.024931	0.350821
878	C	0.804936	0.044204	0.348652
879	C	0.822865	0.078907	0.340711
880	C	0.804422	0.095145	0.334986
881	C	0.769727	0.078719	0.673529
882	C	0.753023	0.044256	0.682909
883	H	0.819024	0.033147	0.350362
884	H	0.727937	0.033314	0.685809
885	H	0.817004	0.120404	0.330188
886	C	0.751255	0.488833	0.350855
887	C	0.767552	0.4695	0.682916
888	C	0.750804	0.435003	0.673763
889	C	0.716103	0.418567	0.335326
890	C	0.697689	0.434849	0.340904
891	C	0.715644	0.469567	0.348706
892	H	0.792648	0.48045	0.685646
893	H	0.703512	0.393309	0.330522
894	H	0.701568	0.480636	0.350453
895	C	0.613836	0.241482	0.375478
896	C	0.6021	0.25098	0.336854
897	C	0.621825	0.258032	0.630799
898	N	0.651512	0.259365	0.632133
899	C	0.662985	0.250796	0.335596
900	N	0.643943	0.242886	0.373494
901	H	0.616537	0.267093	0.602418
902	C	0.598908	0.235574	0.421118
903	H	0.575021	0.234568	0.421463
904	H	0.615671	0.255351	0.443899
905	H	0.595079	0.211926	0.433999
906	C	0.775786	0.375883	0.37567
907	C	0.766385	0.354557	0.337181
908	C	0.759245	0.367105	0.631045
909	N	0.757689	0.395337	0.632377
910	C	0.766229	0.415573	0.335645
911	N	0.774273	0.404514	0.373515
912	H	0.750004	0.35263	0.602804
913	C	0.781768	0.366981	0.421341
914	H	0.782859	0.344143	0.421733
915	H	0.761977	0.363932	0.444122
916	H	0.805395	0.386872	0.434168
917	C	0.641251	0.403226	0.375549
918	C	0.662525	0.41526	0.336997
919	C	0.649943	0.395565	0.630856
920	N	0.621637	0.365829	0.632032
921	C	0.601515	0.354212	0.335396
922	N	0.612554	0.373135	0.3734
923	H	0.664376	0.400984	0.60254
924	C	0.650189	0.418157	0.421196
925	H	0.673061	0.442055	0.421571
926	H	0.653188	0.401401	0.444011
927	H	0.630337	0.42196	0.433995
928	C	0.906775	0.272313	0.375549
929	C	0.918524	0.262734	0.33705
930	C	0.898837	0.255565	0.63092
931	N	0.869151	0.254237	0.632143
932	C	0.857646	0.26288	0.335505
933	N	0.876671	0.270906	0.37344
934	H	0.904156	0.246463	0.602601
935	C	0.921707	0.278306	0.421189
936	H	0.945575	0.279266	0.421571
937	H	0.904928	0.258596	0.444041
938	H	0.925581	0.302	0.433945
939	C	0.744646	0.137801	0.375552
940	C	0.754222	0.159144	0.337072
941	C	0.761449	0.146628	0.630971
942	N	0.762956	0.11837	0.63236
943	C	0.754268	0.098152	0.335685
944	N	0.746076	0.109123	0.373478
945	H	0.770763	0.16111	0.602749
946	C	0.738407	0.14666	0.421101
947	H	0.73742	0.169552	0.421422
948	H	0.758011	0.149577	0.444149
949	H	0.714661	0.126802	0.433658
950	C	0.879229	0.110381	0.375437
951	C	0.858036	0.098589	0.336795
952	C	0.870666	0.118222	0.630646
953	N	0.899009	0.14792	0.631964
954	C	0.919077	0.159445	0.335405
955	N	0.907957	0.140456	0.373356
956	H	0.856251	0.112867	0.602324
957	C	0.870241	0.095392	0.421044
958	H	0.847334	0.071527	0.421382
959	H	0.867293	0.112151	0.443913
960	H	0.89005	0.091507	0.433816
961	C	0.992247	0.247771	0.684136
962	C	0.972913	0.264047	0.682126
963	C	0.938197	0.247234	0.6743
964	C	0.921989	0.212552	0.668562
965	C	0.938472	0.194328	0.006958
966	C	0.972973	0.212135	0.016118
967	H	0.983932	0.289186	0.683967
968	H	0.983975	0.198026	0.018601
969	H	0.896724	0.199832	0.663845
970	C	0.528351	0.265881	0.684129
971	C	0.547627	0.301518	0.016136
972	C	0.582107	0.319322	0.006827
973	C	0.598575	0.301096	0.668289
974	C	0.58239	0.266428	0.674138
975	C	0.547685	0.24961	0.682068
976	H	0.536632	0.315628	0.018733
977	H	0.623833	0.313811	0.663484
978	H	0.536677	0.224471	0.683896
979	C	0.769363	0.247855	0.684217
980	C	0.753039	0.212248	0.682186
981	C	0.769807	0.194314	0.674307
982	C	0.804494	0.212741	0.668613
983	C	0.822766	0.247442	0.007048
984	C	0.804999	0.264174	0.01624
985	H	0.727898	0.198155	0.683954
986	H	0.819139	0.28928	0.018763
987	H	0.817176	0.200158	0.663899
988	C	0.751278	0.265867	0.684244
989	C	0.715642	0.24954	0.016272
990	C	0.697859	0.266274	0.007214
991	C	0.716107	0.300982	0.66889
992	C	0.7508	0.319401	0.674496
993	C	0.767592	0.301471	0.682213
994	H	0.701504	0.224429	0.018723
995	H	0.703418	0.313555	0.664159
996	H	0.792735	0.315564	0.684004
997	C	0.769325	0.024931	0.684153
998	C	0.804936	0.044204	0.681987
999	C	0.822865	0.078907	0.674043
1000	C	0.804422	0.095145	0.668319
1001	C	0.769727	0.078719	0.006863
1002	C	0.753023	0.044256	0.016243
1003	H	0.819024	0.033147	0.683693
1004	H	0.727937	0.033314	0.019142
1005	H	0.817004	0.120404	0.663521
1006	C	0.751255	0.488833	0.684187
1007	C	0.767552	0.4695	0.016251
1008	C	0.750804	0.435003	0.007098
1009	C	0.716103	0.418567	0.66866
1010	C	0.697689	0.434849	0.674236
1011	C	0.715644	0.469567	0.682041
1012	H	0.792648	0.48045	0.018982
1013	H	0.703512	0.393309	0.663855
1014	H	0.701568	0.480636	0.683785
1015	C	0.613836	0.241482	0.70881
1016	C	0.6021	0.25098	0.670188
1017	C	0.621825	0.258032	0.96413
1018	N	0.651512	0.259365	0.965468
1019	C	0.662985	0.250796	0.668927
1020	N	0.643943	0.242886	0.706829
1021	H	0.616537	0.267093	0.93575
1022	C	0.598908	0.235574	0.754453
1023	H	0.575021	0.234568	0.754794
1024	H	0.615671	0.255351	0.777234
1025	H	0.595079	0.211926	0.767334
1026	C	0.775786	0.375883	0.709005
1027	C	0.766385	0.354557	0.670515
1028	C	0.759245	0.367105	0.964377
1029	N	0.757689	0.395337	0.965708
1030	C	0.766229	0.415573	0.668978
1031	N	0.774273	0.404514	0.706846
1032	H	0.750004	0.35263	0.936139
1033	C	0.781768	0.366981	0.754673
1034	H	0.782859	0.344143	0.755065
1035	H	0.761977	0.363932	0.777454
1036	H	0.805395	0.386872	0.767503
1037	C	0.641251	0.403226	0.708884
1038	C	0.662525	0.41526	0.670329
1039	C	0.649943	0.395565	0.964188
1040	N	0.621637	0.365829	0.965363
1041	C	0.601515	0.354212	0.668728
1042	N	0.612554	0.373135	0.706735
1043	H	0.664376	0.400984	0.935872
1044	C	0.650189	0.418157	0.754527
1045	H	0.673061	0.442055	0.754902
1046	H	0.653188	0.401401	0.777346
1047	H	0.630337	0.42196	0.76733
1048	C	0.906775	0.272313	0.70888
1049	C	0.918524	0.262734	0.670384
1050	C	0.898837	0.255565	0.964252
1051	N	0.869151	0.254237	0.965478
1052	C	0.857646	0.26288	0.668839
1053	N	0.876671	0.270906	0.706772
1054	H	0.904156	0.246463	0.935932
1055	C	0.921707	0.278306	0.754521
1056	H	0.945575	0.279266	0.754902
1057	H	0.904928	0.258596	0.777373
1058	H	0.925581	0.302	0.767276
1059	C	0.744646	0.137801	0.708884
1060	C	0.754222	0.159144	0.670404
1061	C	0.761449	0.146628	0.964306
1062	N	0.762956	0.11837	0.965695
1063	C	0.754268	0.098152	0.669018
1064	N	0.746076	0.109123	0.706809
1065	H	0.770763	0.16111	0.936084
1066	C	0.738407	0.14666	0.754433
1067	H	0.73742	0.169552	0.754757
1068	H	0.758011	0.149577	0.777484
1069	H	0.714661	0.126802	0.766989
1070	C	0.879229	0.110381	0.708769
1071	C	0.858036	0.098589	0.670127
1072	C	0.870666	0.118222	0.963981
1073	N	0.899009	0.14792	0.965299
1074	C	0.919077	0.159445	0.668738
1075	N	0.907957	0.140456	0.706691
1076	H	0.856251	0.112867	0.935659
1077	C	0.870241	0.095392	0.754379
1078	H	0.847334	0.071527	0.754713
1079	H	0.867293	0.112151	0.777248
1080	H	0.89005	0.091507	0.767148
1081	C	0.992247	0.747771	0.017469
1082	C	0.972912	0.764046	0.01546
1083	C	0.938197	0.747235	0.007634
1084	C	0.921989	0.712551	0.001897
1085	C	0.93847	0.694328	0.340289
1086	C	0.972973	0.712134	0.349449
1087	H	0.983931	0.789184	0.017303
1088	H	0.983974	0.698024	0.351933
1089	H	0.896723	0.699832	0.997177
1090	C	0.52835	0.765882	0.017463
1091	C	0.547626	0.801517	0.34947
1092	C	0.582107	0.819323	0.340161
1093	C	0.598575	0.801097	0.00162
1094	C	0.582391	0.766429	0.007472
1095	C	0.547685	0.749608	0.015403
1096	H	0.536632	0.815629	0.352065
1097	H	0.623832	0.81381	0.996819
1098	H	0.536676	0.724472	0.017232
1099	C	0.769364	0.747856	0.017553
1100	C	0.753039	0.712248	0.01552
1101	C	0.769807	0.694313	0.007642
1102	C	0.804493	0.71274	0.001945
1103	C	0.822766	0.747441	0.34038
1104	C	0.804999	0.764172	0.349571
1105	H	0.727896	0.698156	0.017286
1106	H	0.819138	0.789279	0.352095
1107	H	0.817176	0.700157	0.997234
1108	C	0.751277	0.765865	0.01758
1109	C	0.715639	0.749539	0.349605
1110	C	0.697858	0.766272	0.340546
1111	C	0.716106	0.800981	0.002222
1112	C	0.750801	0.819402	0.00783
1113	C	0.767593	0.801472	0.015546
1114	H	0.701504	0.724429	0.352055
1115	H	0.703418	0.813556	0.997491
1116	H	0.792736	0.815565	0.01734
1117	C	0.769322	0.524929	0.017489
1118	C	0.804933	0.544202	0.01532
1119	C	0.822863	0.578906	0.007377
1120	C	0.804422	0.595145	0.001651
1121	C	0.769728	0.578719	0.340194
1122	C	0.753021	0.544257	0.349574
1123	H	0.819024	0.533146	0.017029
1124	H	0.727937	0.533314	0.352474
1125	H	0.817004	0.620403	0.996852
1126	C	0.751254	0.988831	0.017523
1127	C	0.767552	0.969501	0.349585
1128	C	0.750803	0.935001	0.340431
1129	C	0.716103	0.918568	0.001992
1130	C	0.69769	0.93485	0.007571
1131	C	0.715643	0.969566	0.015374
1132	H	0.792648	0.980451	0.352315
1133	H	0.703513	0.89331	0.997187
1134	H	0.701566	0.980635	0.017119
1135	C	0.613835	0.741481	0.042144
1136	C	0.602101	0.750981	0.003519
1137	C	0.621824	0.758031	0.297466
1138	N	0.651511	0.759364	0.298801
1139	C	0.662986	0.750797	0.002262
1140	N	0.643943	0.742886	0.040162
1141	H	0.616538	0.767094	0.269085
1142	C	0.598907	0.735573	0.087786
1143	H	0.57502	0.734567	0.088128
1144	H	0.615672	0.755352	0.110568
1145	H	0.595078	0.711926	0.100667
1146	C	0.775786	0.875881	0.042339
1147	C	0.766385	0.854555	0.003847
1148	C	0.759244	0.867103	0.297712
1149	N	0.757688	0.895335	0.299042
1150	C	0.766229	0.915574	0.002309
1151	N	0.774274	0.904515	0.040182
1152	H	0.750003	0.852629	0.269472
1153	C	0.781769	0.866982	0.088008
1154	H	0.78286	0.844144	0.0884
1155	H	0.761977	0.863931	0.110789
1156	H	0.805392	0.886871	0.100836
1157	C	0.641252	0.903227	0.042218
1158	C	0.662525	0.915259	0.003664
1159	C	0.649942	0.895564	0.297523
1160	N	0.621637	0.86583	0.298698
1161	C	0.601515	0.854213	0.002063
1162	N	0.612553	0.873133	0.040068
1163	H	0.664375	0.900983	0.269206
1164	C	0.650189	0.918156	0.087861
1165	H	0.673062	0.942056	0.088237
1166	H	0.653189	0.901402	0.110679
1167	H	0.630335	0.921959	0.100664
1168	C	0.906775	0.772312	0.042214
1169	C	0.918521	0.762732	0.003715
1170	C	0.898837	0.755563	0.297588
1171	N	0.86915	0.754235	0.298812
1172	C	0.857647	0.762881	0.002171
1173	N	0.87667	0.770904	0.040107
1174	H	0.904156	0.746463	0.269268
1175	C	0.921708	0.778307	0.087856
1176	H	0.945572	0.779265	0.088237
1177	H	0.904928	0.758597	0.110708
1178	H	0.925579	0.802001	0.100611
1179	C	0.744646	0.6378	0.042218
1180	C	0.754221	0.659143	0.003739
1181	C	0.761449	0.646627	0.297639
1182	N	0.762956	0.61837	0.299028
1183	C	0.754265	0.598151	0.00235
1184	N	0.746076	0.609123	0.040144
1185	H	0.770762	0.661109	0.269418
1186	C	0.738406	0.646659	0.087768
1187	H	0.73742	0.669552	0.088091
1188	H	0.758011	0.649576	0.110817
1189	H	0.71466	0.6268	0.100324
1190	C	0.879229	0.610379	0.042104
1191	C	0.858035	0.598588	0.003462
1192	C	0.870666	0.618221	0.297316
1193	N	0.89901	0.64792	0.298633
1194	C	0.919077	0.659446	0.00207
1195	N	0.907957	0.640456	0.040024
1196	H	0.856251	0.612867	0.268991
1197	C	0.87024	0.595391	0.087711
1198	H	0.847333	0.571525	0.088048
1199	H	0.86729	0.612149	0.110581
1200	H	0.89005	0.591506	0.100484
1201	C	0.992247	0.747771	0.350801
1202	C	0.972912	0.764046	0.348794
1203	C	0.938197	0.747235	0.340968
1204	C	0.921989	0.712551	0.335231
1205	C	0.93847	0.694328	0.673624
1206	C	0.972973	0.712134	0.682784
1207	H	0.983931	0.789184	0.350635
1208	H	0.983974	0.698024	0.685268
1209	H	0.896723	0.699832	0.330511
1210	C	0.52835	0.765882	0.350794
1211	C	0.547626	0.801517	0.682801
1212	C	0.582107	0.819323	0.673492
1213	C	0.598575	0.801097	0.334955
1214	C	0.582391	0.766429	0.340806
1215	C	0.547685	0.749608	0.348736
1216	H	0.536632	0.815629	0.6854
1217	H	0.623832	0.81381	0.330151
1218	H	0.536676	0.724472	0.350565
1219	C	0.769364	0.747856	0.350886
1220	C	0.753039	0.712248	0.348851
1221	C	0.769807	0.694313	0.340975
1222	C	0.804493	0.71274	0.33528
1223	C	0.822766	0.747441	0.673712
1224	C	0.804999	0.764172	0.682906
1225	H	0.727896	0.698156	0.350619
1226	H	0.819138	0.789279	0.685427
1227	H	0.817176	0.700157	0.330568
1228	C	0.751277	0.765865	0.350913
1229	C	0.715639	0.749539	0.682937
1230	C	0.697858	0.766272	0.673881
1231	C	0.716106	0.800981	0.335557
1232	C	0.750801	0.819402	0.341164
1233	C	0.767593	0.801472	0.348878
1234	H	0.701504	0.724429	0.68539
1235	H	0.703418	0.813556	0.330825
1236	H	0.792736	0.815565	0.350673
1237	C	0.769322	0.524929	0.350821
1238	C	0.804933	0.544202	0.348652
1239	C	0.822863	0.578906	0.340711
1240	C	0.804422	0.595145	0.334986
1241	C	0.769728	0.578719	0.673529
1242	C	0.753021	0.544257	0.682909
1243	H	0.819024	0.533146	0.350362
1244	H	0.727937	0.533314	0.685809
1245	H	0.817004	0.620403	0.330188
1246	C	0.751254	0.988831	0.350855
1247	C	0.767552	0.969501	0.682916
1248	C	0.750803	0.935001	0.673763
1249	C	0.716103	0.918568	0.335326
1250	C	0.69769	0.93485	0.340904
1251	C	0.715643	0.969566	0.348706
1252	H	0.792648	0.980451	0.685646
1253	H	0.703513	0.89331	0.330522
1254	H	0.701566	0.980635	0.350453
1255	C	0.613835	0.741481	0.375478
1256	C	0.602101	0.750981	0.336854
1257	C	0.621824	0.758031	0.630799
1258	N	0.651511	0.759364	0.632133
1259	C	0.662986	0.750797	0.335596
1260	N	0.643943	0.742886	0.373494
1261	H	0.616538	0.767094	0.602418
1262	C	0.598907	0.735573	0.421118
1263	H	0.57502	0.734567	0.421463
1264	H	0.615672	0.755352	0.443899
1265	H	0.595078	0.711926	0.433999
1266	C	0.775786	0.875881	0.37567
1267	C	0.766385	0.854555	0.337181
1268	C	0.759244	0.867103	0.631045
1269	N	0.757688	0.895335	0.632377
1270	C	0.766229	0.915574	0.335644
1271	N	0.774274	0.904515	0.373515
1272	H	0.750003	0.852629	0.602804
1273	C	0.781769	0.866982	0.421341
1274	H	0.78286	0.844144	0.421733
1275	H	0.761977	0.863931	0.444122
1276	H	0.805392	0.886871	0.434168
1277	C	0.641252	0.903227	0.375549
1278	C	0.662525	0.915259	0.336997
1279	C	0.649942	0.895564	0.630856
1280	N	0.621637	0.86583	0.632032
1281	C	0.601515	0.854213	0.335396
1282	N	0.612553	0.873133	0.3734
1283	H	0.664375	0.900983	0.60254
1284	C	0.650189	0.918156	0.421196
1285	H	0.673062	0.942056	0.421571
1286	H	0.653189	0.901402	0.444011
1287	H	0.630335	0.921959	0.433995
1288	C	0.906775	0.772312	0.375545
1289	C	0.918521	0.762732	0.33705
1290	C	0.898837	0.755563	0.63092
1291	N	0.86915	0.754235	0.632143
1292	C	0.857647	0.762881	0.335505
1293	N	0.87667	0.770904	0.37344
1294	H	0.904156	0.746463	0.602601
1295	C	0.921708	0.778307	0.421189
1296	H	0.945572	0.779265	0.421571
1297	H	0.904928	0.758597	0.444041
1298	H	0.925579	0.802001	0.433945
1299	C	0.744646	0.6378	0.375552
1300	C	0.754221	0.659143	0.337072
1301	C	0.761449	0.646627	0.630971
1302	N	0.762956	0.61837	0.63236
1303	C	0.754265	0.598151	0.335685
1304	N	0.746076	0.609123	0.373478
1305	H	0.770762	0.661109	0.602749
1306	C	0.738406	0.646659	0.421101
1307	H	0.73742	0.669552	0.421422
1308	H	0.758011	0.649576	0.444149
1309	H	0.71466	0.6268	0.433658
1310	C	0.879229	0.610379	0.375437
1311	C	0.858035	0.598588	0.336795
1312	C	0.870666	0.618221	0.63065
1313	N	0.89901	0.64792	0.631964
1314	C	0.919077	0.659446	0.335405
1315	N	0.907957	0.640456	0.373356
1316	H	0.856251	0.612867	0.602324
1317	C	0.87024	0.595391	0.421044
1318	H	0.847333	0.571525	0.421382
1319	H	0.86729	0.612149	0.443913
1320	H	0.89005	0.591506	0.433816
1321	C	0.992247	0.747771	0.684136
1322	C	0.972912	0.764046	0.682126
1323	C	0.938197	0.747235	0.6743
1324	C	0.921989	0.712551	0.668562
1325	C	0.93847	0.694328	0.006958
1326	C	0.972973	0.712134	0.016118
1327	H	0.983931	0.789184	0.683967
1328	H	0.983974	0.698024	0.018601
1329	H	0.896723	0.699832	0.663845
1330	C	0.52835	0.765882	0.684129
1331	C	0.547626	0.801517	0.016136
1332	C	0.582107	0.819323	0.006827
1333	C	0.598575	0.801097	0.668289
1334	C	0.582391	0.766429	0.674138
1335	C	0.547685	0.749608	0.682068
1336	H	0.536632	0.815629	0.018733
1337	H	0.623832	0.81381	0.663484
1338	H	0.536676	0.724472	0.683896
1339	C	0.769364	0.747856	0.684217
1340	C	0.753039	0.712248	0.682186
1341	C	0.769807	0.694313	0.674307
1342	C	0.804493	0.71274	0.668613
1343	C	0.822766	0.747441	0.007048
1344	C	0.804999	0.764172	0.01624
1345	H	0.727896	0.698156	0.683954
1346	H	0.819138	0.789279	0.018763
1347	H	0.817176	0.700157	0.663899
1348	C	0.751277	0.765865	0.684244
1349	C	0.715639	0.749539	0.016272
1350	C	0.697858	0.766272	0.007214
1351	C	0.716106	0.800981	0.66889
1352	C	0.750801	0.819402	0.674496
1353	C	0.767593	0.801472	0.682213
1354	H	0.701504	0.724429	0.018723
1355	H	0.703418	0.813556	0.664159
1356	H	0.792736	0.815565	0.684004
1357	C	0.769322	0.524929	0.684153
1358	C	0.804933	0.544202	0.681987
1359	C	0.822863	0.578906	0.674043
1360	C	0.804422	0.595145	0.668319
1361	C	0.769728	0.578719	0.006863
1362	C	0.753021	0.544257	0.016243
1363	H	0.819024	0.533146	0.683693
1364	H	0.727937	0.533314	0.019142
1365	H	0.817004	0.620403	0.663521
1366	C	0.751254	0.988831	0.684187
1367	C	0.767552	0.969501	0.016251
1368	C	0.750803	0.935001	0.007098
1369	C	0.716103	0.918568	0.66866
1370	C	0.69769	0.93485	0.674236
1371	C	0.715643	0.969566	0.682041
1372	H	0.792648	0.980451	0.018982
1373	H	0.703513	0.89331	0.663855
1374	H	0.701566	0.980635	0.683785
1375	C	0.613835	0.741481	0.70881
1376	C	0.602101	0.750981	0.670188
1377	C	0.621824	0.758031	0.96413
1378	N	0.651511	0.759364	0.965468
1379	C	0.662986	0.750797	0.668927
1380	N	0.643943	0.742886	0.706829
1381	H	0.616538	0.767094	0.93575
1382	C	0.598907	0.735573	0.754453
1383	H	0.57502	0.734567	0.754794
1384	H	0.615672	0.755352	0.777234
1385	H	0.595078	0.711926	0.767334
1386	C	0.775786	0.875881	0.709005
1387	C	0.766385	0.854555	0.670515
1388	C	0.759244	0.867103	0.964377
1389	N	0.757688	0.895335	0.965708
1390	C	0.766229	0.915574	0.668978
1391	N	0.774274	0.904515	0.706846
1392	H	0.750003	0.852629	0.936139
1393	C	0.781769	0.866982	0.754673
1394	H	0.78286	0.844144	0.755065
1395	H	0.761977	0.863931	0.777454
1396	H	0.805392	0.886871	0.767503
1397	C	0.641252	0.903227	0.708884
1398	C	0.662525	0.915259	0.670329
1399	C	0.649942	0.895564	0.964188
1400	N	0.621637	0.86583	0.965363
1401	C	0.601515	0.854213	0.668728
1402	N	0.612553	0.873133	0.706735
1403	H	0.664375	0.900983	0.935872
1404	C	0.650189	0.918156	0.754527
1405	H	0.673062	0.942056	0.754902
1406	H	0.653189	0.901402	0.777346
1407	H	0.630335	0.921959	0.76733
1408	C	0.906775	0.772312	0.70888
1409	C	0.918521	0.762732	0.670384
1410	C	0.898837	0.755563	0.964252
1411	N	0.86915	0.754235	0.965478
1412	C	0.857647	0.762881	0.668839
1413	N	0.87667	0.770904	0.706772
1414	H	0.904156	0.746463	0.935932
1415	C	0.921708	0.778307	0.754521
1416	H	0.945572	0.779265	0.754902
1417	H	0.904928	0.758597	0.777373
1418	H	0.925579	0.802001	0.767276
1419	C	0.744646	0.6378	0.708884
1420	C	0.754221	0.659143	0.670404
1421	C	0.761449	0.646627	0.964306
1422	N	0.762956	0.61837	0.965695
1423	C	0.754265	0.598151	0.669018
1424	N	0.746076	0.609123	0.706809
1425	H	0.770762	0.661109	0.936084
1426	C	0.738406	0.646659	0.754433
1427	H	0.73742	0.669552	0.754757
1428	H	0.758011	0.649576	0.777484
1429	H	0.71466	0.6268	0.766989
1430	C	0.879229	0.610379	0.708769
1431	C	0.858035	0.598588	0.670127
1432	C	0.870666	0.618221	0.963981
1433	N	0.89901	0.64792	0.965299
1434	C	0.919077	0.659446	0.668738
1435	N	0.907957	0.640456	0.706691
1436	H	0.856251	0.612867	0.935659
1437	C	0.87024	0.595391	0.754379
1438	H	0.847333	0.571525	0.754713
1439	H	0.86729	0.612149	0.777248
1440	H	0.89005	0.591506	0.767148
