data_C432H360N144_2018-02-15_10:45:35
#******************************************
#
# CIF file created by Zeo++
# Zeo++ is an open source package to
# analyze microporous materials
#
#*******************************************

_cell_length_a		45.1544   
_cell_length_b		45.1541   
_cell_length_c		29.5918   
_cell_angle_alpha		90   
_cell_angle_beta		90   
_cell_angle_gamma		120   

_symmetry_space_group_name_H-M		'P1'
_symmetry_Int_Tables_number		1
_symmetry_cell_setting		Monoclinic

loop_
_symmetry_equiv_pos_as_xyz
'+x,+y,+z'

loop_
_atom_site_label
_atom_site_type_symbol
_atom_site_fract_x
_atom_site_fract_y
_atom_site_fract_z
1	C	0.1423	0.31865	0.026935
2	N	0.108259	0.29608	0.027966
3	C	0.04598	0.274313	0.363176
4	C	0.021202	0.284626	0.359117
5	H	0.028486	0.31002	0.356785
6	C	0.033728	0.238407	0.034357
7	C	0.057735	0.22676	0.050301
8	H	0.073995	0.243285	0.077391
9	H	0.07364	0.227131	0.022292
10	H	0.044878	0.201247	0.065048
11	C	0.080913	0.300854	0.362209
12	H	0.086274	0.325729	0.360506
13	C	0.1423	0.31865	0.360269
14	N	0.108259	0.29608	0.3613
15	C	0.04598	0.274313	0.696508
16	C	0.021202	0.284626	0.69245
17	H	0.028486	0.31002	0.690118
18	C	0.033728	0.238407	0.36769
19	C	0.057735	0.22676	0.383634
20	H	0.073995	0.243285	0.410726
21	H	0.07364	0.227131	0.355626
22	H	0.044878	0.201247	0.398381
23	C	0.080913	0.300854	0.695542
24	H	0.086274	0.325729	0.693839
25	C	0.1423	0.31865	0.693602
26	N	0.108259	0.29608	0.694633
27	C	0.04598	0.274313	0.029841
28	C	0.021202	0.284626	0.025783
29	H	0.028486	0.31002	0.023454
30	C	0.033728	0.238407	0.701023
31	C	0.057735	0.22676	0.716967
32	H	0.073995	0.243285	0.744059
33	H	0.07364	0.227131	0.688959
34	H	0.044878	0.201247	0.731714
35	C	0.080913	0.300854	0.028876
36	H	0.086274	0.325729	0.027174
37	C	0.142301	0.818653	0.026935
38	N	0.108259	0.79608	0.027966
39	C	0.04598	0.774315	0.363176
40	C	0.021204	0.784628	0.359117
41	H	0.028488	0.810022	0.356785
42	C	0.033729	0.738409	0.034357
43	C	0.057734	0.726761	0.050301
44	H	0.073996	0.743285	0.077391
45	H	0.073641	0.727131	0.022292
46	H	0.044878	0.701247	0.065048
47	C	0.080913	0.800854	0.362209
48	H	0.086275	0.825731	0.360506
49	C	0.142301	0.818653	0.360269
50	N	0.108259	0.79608	0.3613
51	C	0.04598	0.774315	0.696508
52	C	0.021204	0.784628	0.69245
53	H	0.028488	0.810022	0.690118
54	C	0.033729	0.738409	0.36769
55	C	0.057734	0.726761	0.383634
56	H	0.073996	0.743285	0.410726
57	H	0.073641	0.727131	0.355626
58	H	0.044878	0.701247	0.398381
59	C	0.080913	0.800854	0.695542
60	H	0.086275	0.825731	0.693839
61	C	0.142301	0.818653	0.693602
62	N	0.108259	0.79608	0.694633
63	C	0.04598	0.774315	0.029841
64	C	0.021204	0.784628	0.025783
65	H	0.028488	0.810022	0.023454
66	C	0.033729	0.738409	0.701023
67	C	0.057734	0.726761	0.716967
68	H	0.073996	0.743285	0.744059
69	H	0.073641	0.727131	0.688959
70	H	0.044878	0.701247	0.731714
71	C	0.080913	0.800854	0.028876
72	H	0.086275	0.825731	0.027174
73	N	0.164046	0.306012	0.027015
74	C	0.198595	0.327097	0.026924
75	N	0.211234	0.361482	0.027007
76	C	0.190149	0.374945	0.026918
77	N	0.155764	0.353199	0.027009
78	N	0.201618	0.408987	0.027949
79	N	0.221167	0.315628	0.027959
80	C	0.242933	0.275113	0.363179
81	C	0.232621	0.240023	0.359127
82	H	0.246766	0.202603	0.357157
83	H	0.207229	0.221913	0.356795
84	C	0.216393	0.283506	0.362206
85	H	0.191519	0.263992	0.360516
86	C	0.242128	0.471267	0.363159
87	C	0.22997	0.019309	0.028602
88	C	0.218473	0.483521	0.034309
89	C	0.204774	0.031255	0.020935
90	H	0.212732	0.048857	0.992327
91	H	0.203074	0.04425	0.051092
92	H	0.179217	0.010835	0.012156
93	C	0.182814	0.459511	0.050231
94	H	0.183072	0.443257	0.077337
95	H	0.167294	0.443597	0.022217
96	H	0.170144	0.472361	0.064951
97	C	0.233737	0.436335	0.362199
98	N	0.164046	0.306012	0.360347
99	C	0.198595	0.327097	0.360256
100	N	0.211234	0.361482	0.36034
101	C	0.190149	0.374945	0.360252
102	N	0.155764	0.353199	0.36034
103	N	0.201618	0.408987	0.361283
104	N	0.221167	0.315628	0.361293
105	C	0.242933	0.275113	0.696512
106	C	0.232621	0.240023	0.69246
107	H	0.246766	0.202603	0.69049
108	H	0.207229	0.221913	0.690128
109	C	0.216393	0.283506	0.695538
110	H	0.191519	0.263992	0.693849
111	C	0.242128	0.471267	0.696491
112	C	0.22997	0.019309	0.361935
113	C	0.218473	0.483521	0.367643
114	C	0.204774	0.031255	0.354268
115	H	0.212732	0.048857	0.32566
116	H	0.203074	0.04425	0.384425
117	H	0.179217	0.010835	0.345488
118	C	0.182814	0.459511	0.383563
119	H	0.183072	0.443257	0.410668
120	H	0.167294	0.443597	0.355548
121	H	0.170144	0.472361	0.398283
122	C	0.233737	0.436335	0.695532
123	N	0.164046	0.306012	0.69368
124	C	0.198595	0.327097	0.693589
125	N	0.211234	0.361482	0.693673
126	C	0.190149	0.374945	0.693585
127	N	0.155764	0.353199	0.693673
128	N	0.201618	0.408987	0.694616
129	N	0.221167	0.315628	0.694626
130	C	0.242933	0.275113	0.029847
131	C	0.232621	0.240023	0.025793
132	H	0.246766	0.202603	0.023825
133	H	0.207229	0.221913	0.023463
134	C	0.216393	0.283506	0.028871
135	H	0.191519	0.263992	0.027183
136	C	0.242128	0.471267	0.029825
137	C	0.22997	0.019309	0.695268
138	C	0.218473	0.483521	0.700976
139	C	0.204774	0.031255	0.6876
140	H	0.212732	0.048857	0.658991
141	H	0.203074	0.04425	0.717757
142	H	0.179217	0.010835	0.678821
143	C	0.182814	0.459511	0.716896
144	H	0.183072	0.443257	0.744001
145	H	0.167294	0.443597	0.688881
146	H	0.170144	0.472361	0.731616
147	C	0.233737	0.436335	0.028867
148	N	0.164046	0.806012	0.027015
149	C	0.198595	0.827097	0.026924
150	N	0.211234	0.861481	0.027007
151	C	0.190152	0.874948	0.026918
152	N	0.155766	0.853201	0.027009
153	N	0.201617	0.908987	0.027949
154	N	0.221167	0.815627	0.027959
155	C	0.242934	0.775115	0.363179
156	C	0.232621	0.740022	0.359127
157	H	0.246766	0.702602	0.357157
158	H	0.20723	0.721915	0.356795
159	C	0.216395	0.783508	0.362206
160	H	0.191519	0.763991	0.360516
161	C	0.24213	0.971269	0.363159
162	C	0.22997	0.519309	0.028602
163	C	0.218475	0.983523	0.034309
164	C	0.204775	0.531257	0.020935
165	H	0.212733	0.548858	0.992327
166	H	0.203075	0.54425	0.051092
167	H	0.179217	0.510835	0.012156
168	C	0.182814	0.959511	0.050231
169	H	0.183072	0.943257	0.077337
170	H	0.167294	0.943597	0.022217
171	H	0.170144	0.972363	0.064951
172	C	0.233738	0.936334	0.362199
173	N	0.164046	0.806012	0.360347
174	C	0.198595	0.827097	0.360256
175	N	0.211234	0.861481	0.36034
176	C	0.190152	0.874948	0.360252
177	N	0.155766	0.853201	0.36034
178	N	0.201617	0.908987	0.361283
179	N	0.221167	0.815627	0.361293
180	C	0.242934	0.775115	0.696512
181	C	0.232621	0.740022	0.69246
182	H	0.246766	0.702602	0.69049
183	H	0.20723	0.721915	0.690128
184	C	0.216395	0.783508	0.695538
185	H	0.191519	0.763991	0.693849
186	C	0.24213	0.971269	0.696491
187	C	0.22997	0.519309	0.361935
188	C	0.218475	0.983523	0.367643
189	C	0.204775	0.531257	0.354268
190	H	0.212733	0.548858	0.32566
191	H	0.203075	0.54425	0.384425
192	H	0.179217	0.510835	0.345488
193	C	0.182814	0.959511	0.383563
194	H	0.183072	0.943257	0.410668
195	H	0.167294	0.943597	0.355548
196	H	0.170144	0.972363	0.398283
197	C	0.233738	0.936334	0.695532
198	N	0.164046	0.806012	0.69368
199	C	0.198595	0.827097	0.693589
200	N	0.211234	0.861481	0.693673
201	C	0.190152	0.874948	0.693585
202	N	0.155766	0.853201	0.693673
203	N	0.201617	0.908987	0.694616
204	N	0.221167	0.815627	0.694626
205	C	0.242934	0.775115	0.029847
206	C	0.232621	0.740022	0.025793
207	H	0.246766	0.702602	0.023825
208	H	0.20723	0.721915	0.023463
209	C	0.216395	0.783508	0.028871
210	H	0.191519	0.763991	0.027183
211	C	0.24213	0.971269	0.029825
212	C	0.22997	0.519309	0.695268
213	C	0.218475	0.983523	0.700976
214	C	0.204775	0.531257	0.6876
215	H	0.212733	0.548858	0.658991
216	H	0.203075	0.54425	0.717757
217	H	0.179217	0.510835	0.678821
218	C	0.182814	0.959511	0.716896
219	H	0.183072	0.943257	0.744001
220	H	0.167294	0.943597	0.688881
221	H	0.170144	0.972363	0.731616
222	C	0.233738	0.936334	0.028867
223	N	0.309202	0.155052	0.026138
224	N	0.312738	0.103897	0.026058
225	N	0.304959	0.204513	0.026072
226	C	0.25621	0.228426	0.359239
227	C	0.291818	0.251422	0.026989
228	C	0.303136	0.287281	0.028655
229	C	0.27884	0.29877	0.034363
230	C	0.290485	0.334423	0.050306
231	H	0.273959	0.33416	0.077393
232	H	0.290117	0.349959	0.022295
233	H	0.315997	0.347079	0.065058
234	C	0.314636	0.238232	0.026901
235	C	0.277223	0.496046	0.359137
236	C	0.288821	0.031232	0.359201
237	C	0.265826	0.043846	0.026958
238	H	0.314647	0.047609	0.357181
239	H	0.295332	0.488761	0.356816
240	H	0.253254	0.430977	0.360523
241	C	0.279018	0.079854	0.026884
242	H	0.262359	0.088869	0.029011
243	N	0.309202	0.155052	0.359472
244	N	0.312738	0.103897	0.359391
245	N	0.304959	0.204513	0.359404
246	C	0.25621	0.228426	0.692571
247	C	0.291818	0.251422	0.36032
248	C	0.303136	0.287281	0.361989
249	C	0.27884	0.29877	0.367697
250	C	0.290485	0.334423	0.383637
251	H	0.273959	0.33416	0.410726
252	H	0.290117	0.349959	0.355626
253	H	0.315997	0.347079	0.398391
254	C	0.314636	0.238232	0.360236
255	C	0.277223	0.496046	0.69247
256	C	0.288821	0.031232	0.692534
257	C	0.265826	0.043846	0.36029
258	H	0.314647	0.047609	0.690513
259	H	0.295332	0.488761	0.690148
260	H	0.253254	0.430977	0.693856
261	C	0.279018	0.079854	0.360219
262	H	0.262359	0.088869	0.362344
263	N	0.309202	0.155052	0.692805
264	N	0.312738	0.103897	0.692723
265	N	0.304959	0.204513	0.692737
266	C	0.25621	0.228426	0.025906
267	C	0.291818	0.251422	0.693653
268	C	0.303136	0.287281	0.695322
269	C	0.27884	0.29877	0.70103
270	C	0.290485	0.334423	0.71697
271	H	0.273959	0.33416	0.744059
272	H	0.290117	0.349959	0.688959
273	H	0.315997	0.347079	0.731724
274	C	0.314636	0.238232	0.693568
275	C	0.277223	0.496046	0.025803
276	C	0.288821	0.031232	0.025867
277	C	0.265826	0.043846	0.693626
278	H	0.314647	0.047609	0.023848
279	H	0.295332	0.488761	0.023482
280	H	0.253254	0.430977	0.02719
281	C	0.279018	0.079854	0.693551
282	H	0.262359	0.088869	0.695677
283	N	0.309202	0.655053	0.026138
284	N	0.312738	0.603898	0.026058
285	N	0.304959	0.704513	0.026072
286	C	0.25621	0.728425	0.359239
287	C	0.291818	0.751423	0.026989
288	C	0.303136	0.78728	0.028655
289	C	0.27884	0.79877	0.034363
290	C	0.290485	0.834423	0.050306
291	H	0.273958	0.83416	0.077393
292	H	0.290117	0.849958	0.022295
293	H	0.315998	0.847081	0.065058
294	C	0.314636	0.738232	0.026901
295	C	0.277223	0.996046	0.359137
296	C	0.28882	0.531231	0.359201
297	C	0.265827	0.543846	0.026958
298	H	0.314647	0.54761	0.357181
299	H	0.295332	0.98876	0.356816
300	H	0.253254	0.930977	0.360523
301	C	0.279019	0.579855	0.026884
302	H	0.262359	0.588869	0.029011
303	N	0.309202	0.655053	0.359472
304	N	0.312738	0.603898	0.359391
305	N	0.304959	0.704513	0.359404
306	C	0.25621	0.728425	0.692571
307	C	0.291818	0.751423	0.36032
308	C	0.303136	0.78728	0.361989
309	C	0.27884	0.79877	0.367697
310	C	0.290485	0.834423	0.383637
311	H	0.273958	0.83416	0.410726
312	H	0.290117	0.849958	0.355626
313	H	0.315998	0.847081	0.398391
314	C	0.314636	0.738232	0.360236
315	C	0.277223	0.996046	0.69247
316	C	0.28882	0.531231	0.692534
317	C	0.265827	0.543846	0.36029
318	H	0.314647	0.54761	0.690513
319	H	0.295332	0.98876	0.690148
320	H	0.253254	0.930977	0.693856
321	C	0.279019	0.579855	0.360219
322	H	0.262359	0.588869	0.362344
323	N	0.309202	0.655053	0.692805
324	N	0.312738	0.603898	0.692723
325	N	0.304959	0.704513	0.692737
326	C	0.25621	0.728425	0.025906
327	C	0.291818	0.751423	0.693653
328	C	0.303136	0.78728	0.695322
329	C	0.27884	0.79877	0.70103
330	C	0.290485	0.834423	0.71697
331	H	0.273958	0.83416	0.744059
332	H	0.290117	0.849958	0.688959
333	H	0.315998	0.847081	0.731724
334	C	0.314636	0.738232	0.693568
335	C	0.277223	0.996046	0.025803
336	C	0.28882	0.531231	0.025867
337	C	0.265827	0.543846	0.693626
338	H	0.314647	0.54761	0.023848
339	H	0.295332	0.98876	0.023482
340	H	0.253254	0.930977	0.02719
341	C	0.279019	0.579855	0.693551
342	H	0.262359	0.588869	0.695677
343	C	0.378763	0.192448	0.026152
344	N	0.359652	0.20805	0.026142
345	C	0.324802	0.189765	0.026155
346	C	0.327487	0.138488	0.026148
347	N	0.362198	0.1576	0.026135
348	N	0.413353	0.212292	0.026068
349	C	0.34028	0.312477	0.021008
350	H	0.349926	0.304534	0.992385
351	H	0.354968	0.314157	0.051163
352	H	0.345423	0.338042	0.012261
353	H	0.34031	0.254893	0.029032
354	C	0.486014	0.261038	0.359228
355	C	0.473404	0.225431	0.026982
356	C	0.497941	0.214112	0.028646
357	H	0.469639	0.270485	0.357147
358	C	0.485995	0.176967	0.020997
359	H	0.468405	0.167322	0.992374
360	H	0.472986	0.162279	0.051152
361	H	0.506416	0.171825	0.012248
362	C	0.437395	0.202614	0.026893
363	H	0.428381	0.176939	0.029023
364	C	0.378763	0.192448	0.359485
365	N	0.359652	0.20805	0.359475
366	C	0.324802	0.189765	0.359489
367	C	0.327487	0.138488	0.359482
368	N	0.362198	0.1576	0.359468
369	N	0.413353	0.212292	0.359401
370	C	0.34028	0.312477	0.354342
371	H	0.349926	0.304534	0.325719
372	H	0.354968	0.314157	0.384496
373	H	0.345423	0.338042	0.345593
374	H	0.34031	0.254893	0.362364
375	C	0.486014	0.261038	0.692561
376	C	0.473404	0.225431	0.360313
377	C	0.497941	0.214112	0.361979
378	H	0.469639	0.270485	0.69048
379	C	0.485995	0.176967	0.354328
380	H	0.468405	0.167322	0.325709
381	H	0.472986	0.162279	0.384486
382	H	0.506416	0.171825	0.345583
383	C	0.437395	0.202614	0.360225
384	H	0.428381	0.176939	0.362354
385	C	0.378763	0.192448	0.692818
386	N	0.359652	0.20805	0.692808
387	C	0.324802	0.189765	0.692821
388	C	0.327487	0.138488	0.692815
389	N	0.362198	0.1576	0.692801
390	N	0.413353	0.212292	0.692734
391	C	0.34028	0.312477	0.687675
392	H	0.349926	0.304534	0.659052
393	H	0.354968	0.314157	0.717828
394	H	0.345423	0.338042	0.678926
395	H	0.34031	0.254893	0.695697
396	C	0.486014	0.261038	0.025896
397	C	0.473404	0.225431	0.693646
398	C	0.497941	0.214112	0.695312
399	H	0.469639	0.270485	0.023814
400	C	0.485995	0.176967	0.687661
401	H	0.468405	0.167322	0.659042
402	H	0.472986	0.162279	0.717818
403	H	0.506416	0.171825	0.678916
404	C	0.437395	0.202614	0.693558
405	H	0.428381	0.176939	0.695687
406	C	0.378763	0.69245	0.026152
407	N	0.359651	0.708049	0.026142
408	C	0.324803	0.689765	0.026155
409	C	0.327487	0.63849	0.026148
410	N	0.362199	0.6576	0.026135
411	N	0.413354	0.712292	0.026068
412	C	0.34028	0.812477	0.021008
413	H	0.349926	0.804534	0.992385
414	H	0.354968	0.814157	0.051163
415	H	0.345423	0.838042	0.012261
416	H	0.34031	0.754893	0.029032
417	C	0.486016	0.76104	0.359228
418	C	0.473404	0.725431	0.026982
419	C	0.497942	0.714112	0.028646
420	H	0.469638	0.770484	0.357147
421	C	0.485995	0.676969	0.020997
422	H	0.468405	0.667323	0.992374
423	H	0.472986	0.66228	0.051152
424	H	0.506416	0.671826	0.012248
425	C	0.437396	0.702615	0.026893
426	H	0.428381	0.67694	0.029023
427	C	0.378763	0.69245	0.359485
428	N	0.359651	0.708049	0.359475
429	C	0.324803	0.689765	0.359489
430	C	0.327487	0.63849	0.359482
431	N	0.362199	0.6576	0.359468
432	N	0.413354	0.712292	0.359401
433	C	0.34028	0.812477	0.354342
434	H	0.349926	0.804534	0.325719
435	H	0.354968	0.814157	0.384496
436	H	0.345423	0.838042	0.345593
437	H	0.34031	0.754893	0.362364
438	C	0.486016	0.76104	0.692561
439	C	0.473404	0.725431	0.360313
440	C	0.497942	0.714112	0.361979
441	H	0.469638	0.770484	0.69048
442	C	0.485995	0.676969	0.354328
443	H	0.468405	0.667323	0.325709
444	H	0.472986	0.66228	0.384486
445	H	0.506416	0.671826	0.345583
446	C	0.437396	0.702615	0.360225
447	H	0.428381	0.67694	0.362354
448	C	0.378763	0.69245	0.692818
449	N	0.359651	0.708049	0.692808
450	C	0.324803	0.689765	0.692821
451	C	0.327487	0.63849	0.692815
452	N	0.362199	0.6576	0.692801
453	N	0.413354	0.712292	0.692734
454	C	0.34028	0.812477	0.687675
455	H	0.349926	0.804534	0.659052
456	H	0.354968	0.814157	0.717828
457	H	0.345423	0.838042	0.678926
458	H	0.34031	0.754893	0.695697
459	C	0.486016	0.76104	0.025896
460	C	0.473404	0.725431	0.693646
461	C	0.497942	0.714112	0.695312
462	H	0.469638	0.770484	0.023814
463	C	0.485995	0.676969	0.687661
464	H	0.468405	0.667323	0.659042
465	H	0.472986	0.66228	0.717818
466	H	0.506416	0.671826	0.678916
467	C	0.437396	0.702615	0.693558
468	H	0.428381	0.67694	0.695687
469	C	0.642301	0.31865	0.026935
470	N	0.664045	0.306012	0.027015
471	C	0.698594	0.327097	0.026924
472	N	0.711233	0.361482	0.027007
473	C	0.690149	0.374945	0.026918
474	N	0.655763	0.353199	0.027009
475	N	0.608258	0.29608	0.027966
476	N	0.701618	0.408987	0.027949
477	N	0.721167	0.315628	0.027959
478	C	0.878761	0.192448	0.026152
479	N	0.85965	0.20805	0.026142
480	C	0.824802	0.189765	0.026155
481	N	0.809202	0.155052	0.026138
482	C	0.827484	0.138488	0.026148
483	N	0.862198	0.1576	0.026135
484	N	0.913353	0.212292	0.026068
485	N	0.812738	0.103897	0.026058
486	N	0.804958	0.204513	0.026072
487	C	0.742932	0.275113	0.363179
488	C	0.73262	0.240023	0.359127
489	C	0.75621	0.228426	0.359239
490	C	0.791819	0.251422	0.026989
491	C	0.803137	0.287281	0.028655
492	H	0.746766	0.202603	0.357157
493	H	0.707228	0.221913	0.356795
494	C	0.77884	0.29877	0.034363
495	C	0.84028	0.312477	0.021008
496	H	0.849926	0.304534	0.992385
497	H	0.854968	0.314157	0.051163
498	H	0.845422	0.338042	0.012261
499	C	0.790486	0.334423	0.050306
500	H	0.773959	0.33416	0.077393
501	H	0.790117	0.349959	0.022295
502	H	0.815997	0.347079	0.065058
503	C	0.716394	0.283506	0.362206
504	H	0.69152	0.263992	0.360516
505	C	0.814636	0.238232	0.026901
506	H	0.840309	0.254893	0.029032
507	C	0.742128	0.471267	0.363159
508	C	0.777224	0.496046	0.359137
509	C	0.788821	0.031232	0.359201
510	C	0.765826	0.043846	0.026958
511	C	0.72997	0.019309	0.028602
512	H	0.814647	0.047609	0.357181
513	H	0.795331	0.488761	0.356816
514	C	0.718473	0.483521	0.034309
515	C	0.704774	0.031255	0.020935
516	H	0.712731	0.048857	0.992327
517	H	0.703075	0.04425	0.051092
518	H	0.679217	0.010835	0.012156
519	C	0.682813	0.459511	0.050231
520	H	0.683071	0.443257	0.077337
521	H	0.667293	0.443597	0.022217
522	H	0.670144	0.472361	0.064951
523	C	0.733737	0.436335	0.362199
524	H	0.753254	0.430977	0.360523
525	C	0.779018	0.079854	0.026884
526	H	0.762358	0.088869	0.029011
527	C	0.54598	0.274313	0.363176
528	C	0.521201	0.284626	0.359117
529	C	0.986014	0.261038	0.359228
530	C	0.973404	0.225431	0.026982
531	C	0.997941	0.214112	0.028646
532	H	0.969639	0.270485	0.357147
533	H	0.528485	0.31002	0.356785
534	C	0.533728	0.238407	0.034357
535	C	0.985993	0.176967	0.020997
536	H	0.968405	0.167322	0.992374
537	H	0.972986	0.162279	0.051152
538	H	0.006416	0.171825	0.012248
539	C	0.557735	0.22676	0.050301
540	H	0.573994	0.243285	0.077391
541	H	0.57364	0.227131	0.022292
542	H	0.544879	0.201247	0.065048
543	C	0.580912	0.300854	0.362209
544	H	0.586273	0.325729	0.360506
545	C	0.937395	0.202614	0.026893
546	H	0.928381	0.176939	0.029023
547	C	0.642301	0.31865	0.360269
548	N	0.664045	0.306012	0.360347
549	C	0.698594	0.327097	0.360256
550	N	0.711233	0.361482	0.36034
551	C	0.690149	0.374945	0.360252
552	N	0.655763	0.353199	0.36034
553	N	0.608258	0.29608	0.3613
554	N	0.701618	0.408987	0.361283
555	N	0.721167	0.315628	0.361293
556	C	0.878761	0.192448	0.359485
557	N	0.85965	0.20805	0.359475
558	C	0.824802	0.189765	0.359489
559	N	0.809202	0.155052	0.359472
560	C	0.827484	0.138488	0.359482
561	N	0.862198	0.1576	0.359468
562	N	0.913353	0.212292	0.359401
563	N	0.812738	0.103897	0.359391
564	N	0.804958	0.204513	0.359404
565	C	0.742932	0.275113	0.696512
566	C	0.73262	0.240023	0.69246
567	C	0.75621	0.228426	0.692571
568	C	0.791819	0.251422	0.36032
569	C	0.803137	0.287281	0.361989
570	H	0.746766	0.202603	0.69049
571	H	0.707228	0.221913	0.690128
572	C	0.77884	0.29877	0.367697
573	C	0.84028	0.312477	0.354342
574	H	0.849926	0.304534	0.325719
575	H	0.854968	0.314157	0.384496
576	H	0.845422	0.338042	0.345593
577	C	0.790486	0.334423	0.383637
578	H	0.773959	0.33416	0.410726
579	H	0.790117	0.349959	0.355626
580	H	0.815997	0.347079	0.398391
581	C	0.716394	0.283506	0.695538
582	H	0.69152	0.263992	0.693849
583	C	0.814636	0.238232	0.360236
584	H	0.840309	0.254893	0.362364
585	C	0.742128	0.471267	0.696491
586	C	0.777224	0.496046	0.69247
587	C	0.788821	0.031232	0.692534
588	C	0.765826	0.043846	0.36029
589	C	0.72997	0.019309	0.361935
590	H	0.814647	0.047609	0.690513
591	H	0.795331	0.488761	0.690148
592	C	0.718473	0.483521	0.367643
593	C	0.704774	0.031255	0.354268
594	H	0.712731	0.048857	0.32566
595	H	0.703075	0.04425	0.384425
596	H	0.679217	0.010835	0.345488
597	C	0.682813	0.459511	0.383563
598	H	0.683071	0.443257	0.410668
599	H	0.667293	0.443597	0.355548
600	H	0.670144	0.472361	0.398283
601	C	0.733737	0.436335	0.695532
602	H	0.753254	0.430977	0.693856
603	C	0.779018	0.079854	0.360219
604	H	0.762358	0.088869	0.362344
605	C	0.54598	0.274313	0.696508
606	C	0.521201	0.284626	0.69245
607	C	0.986014	0.261038	0.692561
608	C	0.973404	0.225431	0.360313
609	C	0.997941	0.214112	0.361979
610	H	0.969639	0.270485	0.69048
611	H	0.528485	0.31002	0.690118
612	C	0.533728	0.238407	0.36769
613	C	0.985993	0.176967	0.354328
614	H	0.968405	0.167322	0.325709
615	H	0.972986	0.162279	0.384486
616	H	0.006416	0.171825	0.345583
617	C	0.557735	0.22676	0.383634
618	H	0.573994	0.243285	0.410726
619	H	0.57364	0.227131	0.355626
620	H	0.544879	0.201247	0.398381
621	C	0.580912	0.300854	0.695542
622	H	0.586273	0.325729	0.693839
623	C	0.937395	0.202614	0.360225
624	H	0.928381	0.176939	0.362354
625	C	0.642301	0.31865	0.693602
626	N	0.664045	0.306012	0.69368
627	C	0.698594	0.327097	0.693589
628	N	0.711233	0.361482	0.693673
629	C	0.690149	0.374945	0.693585
630	N	0.655763	0.353199	0.693673
631	N	0.608258	0.29608	0.694633
632	N	0.701618	0.408987	0.694616
633	N	0.721167	0.315628	0.694626
634	C	0.878761	0.192448	0.692818
635	N	0.85965	0.20805	0.692808
636	C	0.824802	0.189765	0.692821
637	N	0.809202	0.155052	0.692805
638	C	0.827484	0.138488	0.692815
639	N	0.862198	0.1576	0.692801
640	N	0.913353	0.212292	0.692734
641	N	0.812738	0.103897	0.692723
642	N	0.804958	0.204513	0.692737
643	C	0.742932	0.275113	0.029847
644	C	0.73262	0.240023	0.025793
645	C	0.75621	0.228426	0.025906
646	C	0.791819	0.251422	0.693653
647	C	0.803137	0.287281	0.695322
648	H	0.746766	0.202603	0.023825
649	H	0.707228	0.221913	0.023463
650	C	0.77884	0.29877	0.70103
651	C	0.84028	0.312477	0.687675
652	H	0.849926	0.304534	0.659052
653	H	0.854968	0.314157	0.717828
654	H	0.845422	0.338042	0.678926
655	C	0.790486	0.334423	0.71697
656	H	0.773959	0.33416	0.744059
657	H	0.790117	0.349959	0.688959
658	H	0.815997	0.347079	0.731724
659	C	0.716394	0.283506	0.028871
660	H	0.69152	0.263992	0.027183
661	C	0.814636	0.238232	0.693568
662	H	0.840309	0.254893	0.695697
663	C	0.742128	0.471267	0.029825
664	C	0.777224	0.496046	0.025803
665	C	0.788821	0.031232	0.025867
666	C	0.765826	0.043846	0.693626
667	C	0.72997	0.019309	0.695268
668	H	0.814647	0.047609	0.023848
669	H	0.795331	0.488761	0.023482
670	C	0.718473	0.483521	0.700976
671	C	0.704774	0.031255	0.6876
672	H	0.712731	0.048857	0.658991
673	H	0.703075	0.04425	0.717757
674	H	0.679217	0.010835	0.678821
675	C	0.682813	0.459511	0.716896
676	H	0.683071	0.443257	0.744001
677	H	0.667293	0.443597	0.688881
678	H	0.670144	0.472361	0.731616
679	C	0.733737	0.436335	0.028867
680	H	0.753254	0.430977	0.02719
681	C	0.779018	0.079854	0.693551
682	H	0.762358	0.088869	0.695677
683	C	0.54598	0.274313	0.029841
684	C	0.521201	0.284626	0.025783
685	C	0.986014	0.261038	0.025896
686	C	0.973404	0.225431	0.693646
687	C	0.997941	0.214112	0.695312
688	H	0.969639	0.270485	0.023814
689	H	0.528485	0.31002	0.023454
690	C	0.533728	0.238407	0.701023
691	C	0.985993	0.176967	0.687661
692	H	0.968405	0.167322	0.659042
693	H	0.972986	0.162279	0.717818
694	H	0.006416	0.171825	0.678916
695	C	0.557735	0.22676	0.716967
696	H	0.573994	0.243285	0.744059
697	H	0.57364	0.227131	0.688959
698	H	0.544879	0.201247	0.731714
699	C	0.580912	0.300854	0.028876
700	H	0.586273	0.325729	0.027174
701	C	0.937395	0.202614	0.693558
702	H	0.928381	0.176939	0.695687
703	C	0.642301	0.818653	0.026935
704	N	0.664046	0.806012	0.027015
705	C	0.698595	0.827097	0.026924
706	N	0.711234	0.861481	0.027007
707	C	0.690149	0.874948	0.026918
708	N	0.655766	0.853201	0.027009
709	N	0.608259	0.79608	0.027966
710	N	0.701617	0.908987	0.027949
711	N	0.721166	0.815627	0.027959
712	C	0.878763	0.69245	0.026152
713	N	0.85965	0.708049	0.026142
714	C	0.824803	0.689765	0.026155
715	N	0.809201	0.655053	0.026138
716	C	0.827486	0.63849	0.026148
717	N	0.862199	0.6576	0.026135
718	N	0.913355	0.712292	0.026068
719	N	0.812737	0.603898	0.026058
720	N	0.804959	0.704513	0.026072
721	C	0.742934	0.775115	0.363179
722	C	0.732621	0.740022	0.359127
723	C	0.756211	0.728425	0.359239
724	C	0.791818	0.751423	0.026989
725	C	0.803136	0.78728	0.028655
726	H	0.746765	0.702602	0.357157
727	H	0.70723	0.721915	0.356795
728	C	0.778839	0.79877	0.034363
729	C	0.840281	0.812477	0.021008
730	H	0.849925	0.804534	0.992385
731	H	0.854969	0.814157	0.051163
732	H	0.845423	0.838042	0.012261
733	C	0.790484	0.834423	0.050306
734	H	0.773958	0.83416	0.077393
735	H	0.790118	0.849958	0.022295
736	H	0.815997	0.847081	0.065058
737	C	0.716394	0.783508	0.362206
738	H	0.691519	0.763991	0.360516
739	C	0.814635	0.738232	0.026901
740	H	0.84031	0.754893	0.029032
741	C	0.74213	0.971269	0.363159
742	C	0.777223	0.996046	0.359137
743	C	0.788819	0.531231	0.359201
744	C	0.765827	0.543846	0.026958
745	C	0.729971	0.519309	0.028602
746	H	0.814646	0.54761	0.357181
747	H	0.795332	0.98876	0.356816
748	C	0.718473	0.983523	0.034309
749	C	0.704774	0.531257	0.020935
750	H	0.712733	0.548858	0.992327
751	H	0.703074	0.54425	0.051092
752	H	0.679215	0.510835	0.012156
753	C	0.682814	0.959511	0.050231
754	H	0.683072	0.943257	0.077337
755	H	0.667294	0.943597	0.022217
756	H	0.670144	0.972363	0.064951
757	C	0.733736	0.936334	0.362199
758	H	0.753255	0.930977	0.360523
759	C	0.779019	0.579855	0.026884
760	H	0.762359	0.588869	0.029011
761	C	0.545981	0.774315	0.363176
762	C	0.521203	0.784628	0.359117
763	C	0.986017	0.76104	0.359228
764	C	0.973403	0.725431	0.026982
765	C	0.997942	0.714112	0.028646
766	H	0.969638	0.770484	0.357147
767	H	0.528487	0.810022	0.356785
768	C	0.533728	0.738409	0.034357
769	C	0.985994	0.676969	0.020997
770	H	0.968404	0.667323	0.992374
771	H	0.972985	0.66228	0.051152
772	H	0.006415	0.671826	0.012248
773	C	0.557735	0.726761	0.050301
774	H	0.573995	0.743285	0.077391
775	H	0.57364	0.727131	0.022292
776	H	0.544878	0.701247	0.065048
777	C	0.580912	0.800854	0.362209
778	H	0.586275	0.825731	0.360506
779	C	0.937395	0.702615	0.026893
780	H	0.92838	0.67694	0.029023
781	C	0.642301	0.818653	0.360269
782	N	0.664046	0.806012	0.360347
783	C	0.698595	0.827097	0.360256
784	N	0.711234	0.861481	0.36034
785	C	0.690149	0.874948	0.360252
786	N	0.655766	0.853201	0.36034
787	N	0.608259	0.79608	0.3613
788	N	0.701617	0.908987	0.361283
789	N	0.721166	0.815627	0.361293
790	C	0.878763	0.69245	0.359485
791	N	0.85965	0.708049	0.359475
792	C	0.824803	0.689765	0.359489
793	N	0.809201	0.655053	0.359472
794	C	0.827486	0.63849	0.359482
795	N	0.862199	0.6576	0.359468
796	N	0.913355	0.712292	0.359401
797	N	0.812737	0.603898	0.359391
798	N	0.804959	0.704513	0.359404
799	C	0.742934	0.775115	0.696512
800	C	0.732621	0.740022	0.69246
801	C	0.756211	0.728425	0.692571
802	C	0.791818	0.751423	0.36032
803	C	0.803136	0.78728	0.361989
804	H	0.746765	0.702602	0.69049
805	H	0.70723	0.721915	0.690128
806	C	0.778839	0.79877	0.367697
807	C	0.840281	0.812477	0.354342
808	H	0.849925	0.804534	0.325719
809	H	0.854969	0.814157	0.384496
810	H	0.845423	0.838042	0.345593
811	C	0.790484	0.834423	0.383637
812	H	0.773958	0.83416	0.410726
813	H	0.790118	0.849958	0.355626
814	H	0.815997	0.847081	0.398391
815	C	0.716394	0.783508	0.695538
816	H	0.691519	0.763991	0.693849
817	C	0.814635	0.738232	0.360236
818	H	0.84031	0.754893	0.362364
819	C	0.74213	0.971269	0.696491
820	C	0.777223	0.996046	0.69247
821	C	0.788819	0.531231	0.692534
822	C	0.765827	0.543846	0.36029
823	C	0.729971	0.519309	0.361935
824	H	0.814646	0.54761	0.690513
825	H	0.795332	0.98876	0.690148
826	C	0.718473	0.983523	0.367643
827	C	0.704774	0.531257	0.354268
828	H	0.712733	0.548858	0.32566
829	H	0.703074	0.54425	0.384425
830	H	0.679215	0.510835	0.345488
831	C	0.682814	0.959511	0.383563
832	H	0.683072	0.943257	0.410668
833	H	0.667294	0.943597	0.355548
834	H	0.670144	0.972363	0.398283
835	C	0.733736	0.936334	0.695532
836	H	0.753255	0.930977	0.693856
837	C	0.779019	0.579855	0.360219
838	H	0.762359	0.588869	0.362344
839	C	0.545981	0.774315	0.696508
840	C	0.521203	0.784628	0.69245
841	C	0.986017	0.76104	0.692561
842	C	0.973403	0.725431	0.360313
843	C	0.997942	0.714112	0.361979
844	H	0.969638	0.770484	0.69048
845	H	0.528487	0.810022	0.690118
846	C	0.533728	0.738409	0.36769
847	C	0.985994	0.676969	0.354328
848	H	0.968404	0.667323	0.325709
849	H	0.972985	0.66228	0.384486
850	H	0.006415	0.671826	0.345583
851	C	0.557735	0.726761	0.383634
852	H	0.573995	0.743285	0.410726
853	H	0.57364	0.727131	0.355626
854	H	0.544878	0.701247	0.398381
855	C	0.580912	0.800854	0.695542
856	H	0.586275	0.825731	0.693839
857	C	0.937395	0.702615	0.360225
858	H	0.92838	0.67694	0.362354
859	C	0.642301	0.818653	0.693602
860	N	0.664046	0.806012	0.69368
861	C	0.698595	0.827097	0.693589
862	N	0.711234	0.861481	0.693673
863	C	0.690149	0.874948	0.693585
864	N	0.655766	0.853201	0.693673
865	N	0.608259	0.79608	0.694633
866	N	0.701617	0.908987	0.694616
867	N	0.721166	0.815627	0.694626
868	C	0.878763	0.69245	0.692818
869	N	0.85965	0.708049	0.692808
870	C	0.824803	0.689765	0.692821
871	N	0.809201	0.655053	0.692805
872	C	0.827486	0.63849	0.692815
873	N	0.862199	0.6576	0.692801
874	N	0.913355	0.712292	0.692734
875	N	0.812737	0.603898	0.692723
876	N	0.804959	0.704513	0.692737
877	C	0.742934	0.775115	0.029847
878	C	0.732621	0.740022	0.025793
879	C	0.756211	0.728425	0.025906
880	C	0.791818	0.751423	0.693653
881	C	0.803136	0.78728	0.695322
882	H	0.746765	0.702602	0.023825
883	H	0.70723	0.721915	0.023463
884	C	0.778839	0.79877	0.70103
885	C	0.840281	0.812477	0.687675
886	H	0.849925	0.804534	0.659052
887	H	0.854969	0.814157	0.717828
888	H	0.845423	0.838042	0.678926
889	C	0.790484	0.834423	0.71697
890	H	0.773958	0.83416	0.744059
891	H	0.790118	0.849958	0.688959
892	H	0.815997	0.847081	0.731724
893	C	0.716394	0.783508	0.028871
894	H	0.691519	0.763991	0.027183
895	C	0.814635	0.738232	0.693568
896	H	0.84031	0.754893	0.695697
897	C	0.74213	0.971269	0.029825
898	C	0.777223	0.996046	0.025803
899	C	0.788819	0.531231	0.025867
900	C	0.765827	0.543846	0.693626
901	C	0.729971	0.519309	0.695268
902	H	0.814646	0.54761	0.023848
903	H	0.795332	0.98876	0.023482
904	C	0.718473	0.983523	0.700976
905	C	0.704774	0.531257	0.6876
906	H	0.712733	0.548858	0.658991
907	H	0.703074	0.54425	0.717757
908	H	0.679215	0.510835	0.678821
909	C	0.682814	0.959511	0.716896
910	H	0.683072	0.943257	0.744001
911	H	0.667294	0.943597	0.688881
912	H	0.670144	0.972363	0.731616
913	C	0.733736	0.936334	0.028867
914	H	0.753255	0.930977	0.02719
915	C	0.779019	0.579855	0.693551
916	H	0.762359	0.588869	0.695677
917	C	0.545981	0.774315	0.029841
918	C	0.521203	0.784628	0.025783
919	C	0.986017	0.76104	0.025896
920	C	0.973403	0.725431	0.693646
921	C	0.997942	0.714112	0.695312
922	H	0.969638	0.770484	0.023814
923	H	0.528487	0.810022	0.023454
924	C	0.533728	0.738409	0.701023
925	C	0.985994	0.676969	0.687661
926	H	0.968404	0.667323	0.659042
927	H	0.972985	0.66228	0.717818
928	H	0.006415	0.671826	0.678916
929	C	0.557735	0.726761	0.716967
930	H	0.573995	0.743285	0.744059
931	H	0.57364	0.727131	0.688959
932	H	0.544878	0.701247	0.731714
933	C	0.580912	0.800854	0.028876
934	H	0.586275	0.825731	0.027174
935	C	0.937395	0.702615	0.693558
936	H	0.92838	0.67694	0.695687
