data_C360H216N144O108_2018-02-15_10:32:31
#******************************************
#
# CIF file created by Zeo++
# Zeo++ is an open source package to
# analyze microporous materials
#
#*******************************************

_cell_length_a		43.4556   
_cell_length_b		43.4556   
_cell_length_c		30.109   
_cell_angle_alpha		90   
_cell_angle_beta		90   
_cell_angle_gamma		120   

_symmetry_space_group_name_H-M		'P1'
_symmetry_Int_Tables_number		1
_symmetry_cell_setting		Monoclinic

loop_
_symmetry_equiv_pos_as_xyz
'+x,+y,+z'

loop_
_atom_site_label
_atom_site_type_symbol
_atom_site_fract_x
_atom_site_fract_y
_atom_site_fract_z
1	C	0.128536	0.321295	0.287654
2	N	0.153923	0.356178	0.954692
3	C	0.189127	0.366935	0.954304
4	N	0.198631	0.341553	0.954709
5	C	0.174189	0.306348	0.954334
6	N	0.139304	0.296854	0.954732
7	C	0.215129	0.402873	0.959757
8	C	0.184124	0.28035	0.959847
9	C	0.092596	0.311341	0.959797
10	O	0.157387	0.2461	0.961152
11	O	0.085067	0.338067	0.961063
12	O	0.249381	0.41039	0.961033
13	C	0.365875	0.17446	0.375463
14	N	0.340023	0.139756	0.04175
15	C	0.304947	0.129597	0.042106
16	N	0.296097	0.155449	0.04179
17	C	0.321014	0.19052	0.042162
18	N	0.355719	0.199375	0.041803
19	C	0.278462	0.093729	0.037395
20	C	0.311648	0.217022	0.037499
21	C	0.401738	0.183818	0.037412
22	O	0.338772	0.251088	0.036408
23	O	0.408673	0.15669	0.036283
24	O	0.244394	0.086776	0.036294
25	C	0.231939	0.268499	0.314543
26	C	0.268353	0.279795	0.308433
27	C	0.283763	0.260808	0.326357
28	C	0.263797	0.229872	0.019093
29	C	0.227406	0.218951	0.026275
30	H	0.309383	0.269091	0.317655
31	H	0.283951	0.301642	0.289329
32	C	0.212032	0.237839	0.007662
33	H	0.186372	0.229742	0.016003
34	O	0.20592	0.190044	0.051572
35	H	0.210514	0.198093	0.082645
36	N	0.218747	0.288723	0.297265
37	H	0.2364	0.312478	0.287259
38	N	0.277131	0.209252	0.034711
39	H	0.259556	0.185367	0.044185
40	C	0.226996	0.462554	0.314408
41	C	0.215708	0.487675	0.308286
42	C	0.234701	0.022075	0.326201
43	C	0.265633	0.033042	0.018944
44	C	0.276554	0.007572	0.026121
45	H	0.226418	0.039413	0.317501
46	H	0.193854	0.481423	0.289193
47	C	0.257677	0.473315	0.00749
48	H	0.265745	0.455741	0.015885
49	O	0.30545	0.014986	0.051438
50	H	0.297388	0.011523	0.082506
51	N	0.206761	0.429129	0.297161
52	H	0.182999	0.42302	0.287176
53	N	0.286245	0.066991	0.034581
54	H	0.310128	0.073301	0.044061
55	C	0.03293	0.263521	0.314474
56	C	0.007808	0.227111	0.30835
57	C	0.473405	0.211706	0.32625
58	C	0.462439	0.231668	0.019002
59	C	0.487915	0.268055	0.026199
60	H	0.456066	0.186089	0.317536
61	H	0.01406	0.211519	0.289234
62	C	0.022169	0.283438	0.007564
63	H	0.039756	0.309074	0.01597
64	O	0.480505	0.289533	0.051528
65	H	0.48396	0.28492	0.082593
66	N	0.066352	0.276715	0.297221
67	H	0.072465	0.259064	0.287235
68	N	0.428489	0.218335	0.034632
69	H	0.422185	0.235909	0.044126
70	C	0.128536	0.321295	0.620988
71	N	0.153923	0.356178	0.288026
72	C	0.189127	0.366935	0.287639
73	N	0.198631	0.341553	0.288044
74	C	0.174189	0.306348	0.287668
75	N	0.139304	0.296854	0.288066
76	C	0.215129	0.402873	0.29309
77	C	0.184124	0.28035	0.293182
78	C	0.092596	0.311341	0.293133
79	O	0.157387	0.2461	0.294486
80	O	0.085067	0.338067	0.294398
81	O	0.249381	0.41039	0.294366
82	C	0.365875	0.17446	0.708796
83	N	0.340023	0.139756	0.375084
84	C	0.304947	0.129597	0.37544
85	N	0.296097	0.155449	0.375121
86	C	0.321014	0.19052	0.375493
87	N	0.355719	0.199375	0.375137
88	C	0.278462	0.093729	0.370727
89	C	0.311648	0.217022	0.370833
90	C	0.401738	0.183818	0.370743
91	O	0.338772	0.251088	0.36974
92	O	0.408673	0.15669	0.369614
93	O	0.244394	0.086776	0.369627
94	C	0.231939	0.268499	0.647877
95	C	0.268353	0.279795	0.641766
96	C	0.283763	0.260808	0.659691
97	C	0.263797	0.229872	0.352427
98	C	0.227406	0.218951	0.359607
99	H	0.309383	0.269091	0.650989
100	H	0.283951	0.301642	0.622662
101	C	0.212032	0.237839	0.340995
102	H	0.186372	0.229742	0.349335
103	O	0.20592	0.190044	0.384905
104	H	0.210514	0.198093	0.415979
105	N	0.218747	0.288723	0.6306
106	H	0.2364	0.312478	0.620593
107	N	0.277131	0.209252	0.368043
108	H	0.259556	0.185367	0.377519
109	C	0.226996	0.462554	0.647741
110	C	0.215708	0.487675	0.64162
111	C	0.234701	0.022075	0.659535
112	C	0.265633	0.033042	0.352277
113	C	0.276554	0.007572	0.359454
114	H	0.226418	0.039413	0.650833
115	H	0.193854	0.481423	0.622526
116	C	0.257677	0.473315	0.340822
117	H	0.265745	0.455741	0.349218
118	O	0.30545	0.014986	0.384769
119	H	0.297388	0.011523	0.41584
120	N	0.206761	0.429129	0.630493
121	H	0.182999	0.42302	0.62051
122	N	0.286245	0.066991	0.367914
123	H	0.310128	0.073301	0.377393
124	C	0.03293	0.263521	0.647807
125	C	0.007808	0.227111	0.641683
126	C	0.473405	0.211706	0.659584
127	C	0.462439	0.231668	0.352334
128	C	0.487915	0.268055	0.359531
129	H	0.456066	0.186089	0.650869
130	H	0.01406	0.211519	0.622569
131	C	0.022169	0.283438	0.340895
132	H	0.039756	0.309074	0.349305
133	O	0.480505	0.289533	0.384862
134	H	0.48396	0.28492	0.415926
135	N	0.066352	0.276715	0.630553
136	H	0.072465	0.259064	0.620569
137	N	0.428489	0.218335	0.367964
138	H	0.422185	0.235909	0.377459
139	C	0.128536	0.321295	0.95432
140	N	0.153923	0.356178	0.62136
141	C	0.189127	0.366935	0.620971
142	N	0.198631	0.341553	0.621376
143	C	0.174189	0.306348	0.621001
144	N	0.139304	0.296854	0.6214
145	C	0.215129	0.402873	0.626425
146	C	0.184124	0.28035	0.626514
147	C	0.092596	0.311341	0.626465
148	O	0.157387	0.2461	0.62782
149	O	0.085067	0.338067	0.62773
150	O	0.249381	0.41039	0.6277
151	C	0.365875	0.17446	0.042129
152	N	0.340023	0.139756	0.708417
153	C	0.304947	0.129597	0.708772
154	N	0.296097	0.155449	0.708457
155	C	0.321014	0.19052	0.708829
156	N	0.355719	0.199375	0.70847
157	C	0.278462	0.093729	0.704059
158	C	0.311648	0.217022	0.704166
159	C	0.401738	0.183818	0.704076
160	O	0.338772	0.251088	0.703073
161	O	0.408673	0.15669	0.70295
162	O	0.244394	0.086776	0.70296
163	C	0.231939	0.268499	0.981209
164	C	0.268353	0.279795	0.975098
165	C	0.283763	0.260808	0.993023
166	C	0.263797	0.229872	0.685759
167	C	0.227406	0.218951	0.69294
168	H	0.309383	0.269091	0.984322
169	H	0.283951	0.301642	0.955994
170	C	0.212032	0.237839	0.674327
171	H	0.186372	0.229742	0.68267
172	O	0.20592	0.190044	0.718238
173	H	0.210514	0.198093	0.749312
174	N	0.218747	0.288723	0.963932
175	H	0.2364	0.312478	0.953925
176	N	0.277131	0.209252	0.701376
177	H	0.259556	0.185367	0.710851
178	C	0.226996	0.462554	0.981073
179	C	0.215708	0.487675	0.974952
180	C	0.234701	0.022075	0.992867
181	C	0.265633	0.033042	0.68561
182	C	0.276554	0.007572	0.692787
183	H	0.226418	0.039413	0.984165
184	H	0.193854	0.481423	0.955858
185	C	0.257677	0.473315	0.674155
186	H	0.265745	0.455741	0.682551
187	O	0.30545	0.014986	0.718102
188	H	0.297388	0.011523	0.749172
189	N	0.206761	0.429129	0.963826
190	H	0.182999	0.42302	0.953842
191	N	0.286245	0.066991	0.701246
192	H	0.310128	0.073301	0.710729
193	C	0.03293	0.263521	0.98114
194	C	0.007808	0.227111	0.975015
195	C	0.473405	0.211706	0.992917
196	C	0.462439	0.231668	0.685666
197	C	0.487915	0.268055	0.692863
198	H	0.456066	0.186089	0.984202
199	H	0.01406	0.211519	0.955901
200	C	0.022169	0.283438	0.674231
201	H	0.039756	0.309074	0.682637
202	O	0.480505	0.289533	0.718195
203	H	0.48396	0.28492	0.749259
204	N	0.066352	0.276715	0.963886
205	H	0.072465	0.259064	0.953902
206	N	0.428489	0.218335	0.701296
207	H	0.422185	0.235909	0.710792
208	C	0.128537	0.821296	0.287654
209	N	0.153925	0.85618	0.954692
210	C	0.189128	0.866934	0.954304
211	N	0.198631	0.841555	0.954709
212	C	0.174188	0.806347	0.954334
213	N	0.139304	0.796853	0.954732
214	C	0.21513	0.902875	0.959757
215	C	0.184125	0.780352	0.959847
216	C	0.092596	0.81134	0.959797
217	O	0.157387	0.7461	0.961152
218	O	0.085068	0.838069	0.961063
219	O	0.249381	0.910389	0.961033
220	C	0.365876	0.67446	0.375463
221	N	0.340022	0.639757	0.04175
222	C	0.304947	0.629596	0.042106
223	N	0.296098	0.65545	0.04179
224	C	0.321014	0.69052	0.042162
225	N	0.355718	0.699374	0.041803
226	C	0.278463	0.593729	0.037395
227	C	0.311648	0.717023	0.037499
228	C	0.401738	0.683818	0.037412
229	O	0.338771	0.751088	0.036408
230	O	0.408672	0.656688	0.036283
231	O	0.244393	0.586775	0.036294
232	C	0.23194	0.768501	0.314543
233	C	0.268353	0.779794	0.308433
234	C	0.283763	0.760808	0.326357
235	C	0.263796	0.72987	0.019093
236	C	0.227407	0.718952	0.026275
237	H	0.309383	0.76909	0.317655
238	H	0.283951	0.801644	0.289329
239	C	0.212032	0.737839	0.007662
240	H	0.186372	0.729743	0.016003
241	O	0.205919	0.690044	0.051572
242	H	0.210514	0.698093	0.082645
243	N	0.218747	0.788722	0.297265
244	H	0.236401	0.81248	0.287259
245	N	0.277131	0.709253	0.034711
246	H	0.259556	0.685368	0.044185
247	C	0.226996	0.962553	0.314408
248	C	0.215708	0.987677	0.308286
249	C	0.2347	0.522075	0.326201
250	C	0.265633	0.533041	0.018944
251	C	0.276554	0.507572	0.026121
252	H	0.226418	0.539413	0.317501
253	H	0.193854	0.981422	0.289193
254	C	0.257678	0.973317	0.00749
255	H	0.265744	0.95574	0.015885
256	O	0.30545	0.514986	0.051438
257	H	0.297389	0.511523	0.082506
258	N	0.206761	0.929128	0.297161
259	H	0.182999	0.923022	0.287176
260	N	0.286244	0.56699	0.034581
261	H	0.310128	0.5733	0.044061
262	C	0.032931	0.763521	0.314474
263	C	0.007808	0.727109	0.30835
264	C	0.473405	0.711706	0.32625
265	C	0.46244	0.731669	0.019002
266	C	0.487914	0.768054	0.026199
267	H	0.456065	0.68609	0.317536
268	H	0.014059	0.71152	0.289234
269	C	0.022169	0.783437	0.007564
270	H	0.039756	0.809076	0.01597
271	O	0.480504	0.789532	0.051528
272	H	0.483959	0.784919	0.082593
273	N	0.066352	0.776714	0.297221
274	H	0.072465	0.759065	0.287235
275	N	0.428489	0.718335	0.034632
276	H	0.422185	0.73591	0.044126
277	C	0.128537	0.821296	0.620988
278	N	0.153925	0.85618	0.288026
279	C	0.189128	0.866934	0.287639
280	N	0.198631	0.841555	0.288044
281	C	0.174188	0.806347	0.287668
282	N	0.139304	0.796853	0.288066
283	C	0.21513	0.902875	0.293091
284	C	0.184125	0.780352	0.293182
285	C	0.092596	0.81134	0.293133
286	O	0.157387	0.7461	0.294486
287	O	0.085068	0.838069	0.294398
288	O	0.249381	0.910389	0.294366
289	C	0.365876	0.67446	0.708796
290	N	0.340022	0.639757	0.375084
291	C	0.304947	0.629596	0.37544
292	N	0.296098	0.65545	0.375121
293	C	0.321014	0.69052	0.375493
294	N	0.355718	0.699374	0.375137
295	C	0.278463	0.593729	0.370727
296	C	0.311648	0.717023	0.370833
297	C	0.401738	0.683818	0.370743
298	O	0.338771	0.751088	0.36974
299	O	0.408672	0.656688	0.369614
300	O	0.244393	0.586775	0.369627
301	C	0.23194	0.768501	0.647877
302	C	0.268353	0.779794	0.641766
303	C	0.283763	0.760808	0.659691
304	C	0.263796	0.72987	0.352427
305	C	0.227407	0.718952	0.359607
306	H	0.309383	0.76909	0.650989
307	H	0.283951	0.801644	0.622662
308	C	0.212032	0.737839	0.340995
309	H	0.186372	0.729743	0.349335
310	O	0.205919	0.690044	0.384905
311	H	0.210514	0.698093	0.415979
312	N	0.218747	0.788722	0.6306
313	H	0.236401	0.81248	0.620593
314	N	0.277131	0.709253	0.368043
315	H	0.259556	0.685368	0.377519
316	C	0.226996	0.962553	0.647741
317	C	0.215708	0.987677	0.64162
318	C	0.2347	0.522075	0.659535
319	C	0.265633	0.533041	0.352277
320	C	0.276554	0.507572	0.359454
321	H	0.226418	0.539413	0.650833
322	H	0.193854	0.981422	0.622526
323	C	0.257678	0.973317	0.340822
324	H	0.265744	0.95574	0.349218
325	O	0.30545	0.514986	0.384769
326	H	0.297389	0.511523	0.41584
327	N	0.206761	0.929128	0.630493
328	H	0.182999	0.923022	0.62051
329	N	0.286244	0.56699	0.367914
330	H	0.310128	0.5733	0.377393
331	C	0.032931	0.763521	0.647807
332	C	0.007808	0.727109	0.641683
333	C	0.473405	0.711706	0.659584
334	C	0.46244	0.731669	0.352334
335	C	0.487914	0.768054	0.359531
336	H	0.456065	0.68609	0.650869
337	H	0.014059	0.71152	0.622569
338	C	0.022169	0.783437	0.340895
339	H	0.039756	0.809076	0.349305
340	O	0.480504	0.789532	0.384862
341	H	0.483959	0.784919	0.415926
342	N	0.066352	0.776714	0.630553
343	H	0.072465	0.759065	0.620569
344	N	0.428489	0.718335	0.367964
345	H	0.422185	0.73591	0.377459
346	C	0.128537	0.821296	0.95432
347	N	0.153925	0.85618	0.62136
348	C	0.189128	0.866934	0.620971
349	N	0.198631	0.841555	0.621376
350	C	0.174188	0.806347	0.621001
351	N	0.139304	0.796853	0.6214
352	C	0.21513	0.902875	0.626425
353	C	0.184125	0.780352	0.626514
354	C	0.092596	0.81134	0.626465
355	O	0.157387	0.7461	0.62782
356	O	0.085068	0.838069	0.62773
357	O	0.249381	0.910389	0.6277
358	C	0.365876	0.67446	0.042129
359	N	0.340022	0.639757	0.708417
360	C	0.304947	0.629596	0.708772
361	N	0.296098	0.65545	0.708457
362	C	0.321014	0.69052	0.708829
363	N	0.355718	0.699374	0.70847
364	C	0.278463	0.593729	0.704059
365	C	0.311648	0.717023	0.704166
366	C	0.401738	0.683818	0.704076
367	O	0.338771	0.751088	0.703073
368	O	0.408672	0.656688	0.70295
369	O	0.244393	0.586775	0.70296
370	C	0.23194	0.768501	0.981209
371	C	0.268353	0.779794	0.975098
372	C	0.283763	0.760808	0.993023
373	C	0.263796	0.72987	0.685759
374	C	0.227407	0.718952	0.69294
375	H	0.309383	0.76909	0.984322
376	H	0.283951	0.801644	0.955994
377	C	0.212032	0.737839	0.674327
378	H	0.186372	0.729743	0.68267
379	O	0.205919	0.690044	0.718238
380	H	0.210514	0.698093	0.749312
381	N	0.218747	0.788722	0.963932
382	H	0.236401	0.81248	0.953925
383	N	0.277131	0.709253	0.701376
384	H	0.259556	0.685368	0.710851
385	C	0.226996	0.962553	0.981073
386	C	0.215708	0.987677	0.974952
387	C	0.2347	0.522075	0.992867
388	C	0.265633	0.533041	0.68561
389	C	0.276554	0.507572	0.692787
390	H	0.226418	0.539413	0.984165
391	H	0.193854	0.981422	0.955858
392	C	0.257678	0.973317	0.674155
393	H	0.265744	0.95574	0.682551
394	O	0.30545	0.514986	0.718102
395	H	0.297389	0.511523	0.749172
396	N	0.206761	0.929128	0.963826
397	H	0.182999	0.923022	0.953842
398	N	0.286244	0.56699	0.701246
399	H	0.310128	0.5733	0.710729
400	C	0.032931	0.763521	0.98114
401	C	0.007808	0.727109	0.975015
402	C	0.473405	0.711706	0.992917
403	C	0.46244	0.731669	0.685666
404	C	0.487914	0.768054	0.692863
405	H	0.456065	0.68609	0.984202
406	H	0.014059	0.71152	0.955901
407	C	0.022169	0.783437	0.674231
408	H	0.039756	0.809076	0.682637
409	O	0.480504	0.789532	0.718195
410	H	0.483959	0.784919	0.749259
411	N	0.066352	0.776714	0.963886
412	H	0.072465	0.759065	0.953902
413	N	0.428489	0.718335	0.701296
414	H	0.422185	0.73591	0.710792
415	C	0.628536	0.321295	0.287654
416	N	0.653924	0.356178	0.954692
417	C	0.689128	0.366935	0.954304
418	N	0.69863	0.341553	0.954709
419	C	0.674189	0.306348	0.954334
420	N	0.639305	0.296854	0.954732
421	C	0.715129	0.402873	0.959757
422	C	0.684126	0.28035	0.959847
423	C	0.592597	0.311341	0.959797
424	O	0.657386	0.2461	0.961152
425	O	0.585067	0.338067	0.961063
426	O	0.749381	0.41039	0.961033
427	C	0.865875	0.17446	0.375463
428	N	0.840023	0.139756	0.04175
429	C	0.804949	0.129597	0.042106
430	N	0.796097	0.155449	0.04179
431	C	0.821015	0.19052	0.042162
432	N	0.855719	0.199375	0.041803
433	C	0.778462	0.093729	0.037395
434	C	0.811647	0.217022	0.037499
435	C	0.901738	0.183818	0.037412
436	O	0.838771	0.251088	0.036408
437	O	0.908673	0.15669	0.036283
438	O	0.744393	0.086776	0.036294
439	C	0.73194	0.268499	0.314543
440	C	0.768353	0.279795	0.308433
441	C	0.783763	0.260808	0.326357
442	C	0.763796	0.229872	0.019093
443	C	0.727407	0.218951	0.026275
444	H	0.809384	0.269091	0.317655
445	H	0.78395	0.301642	0.289329
446	C	0.712033	0.237839	0.007662
447	H	0.686371	0.229742	0.016003
448	O	0.705919	0.190044	0.051572
449	H	0.710514	0.198093	0.082645
450	N	0.718748	0.288723	0.297265
451	H	0.736399	0.312478	0.287259
452	N	0.777131	0.209252	0.034711
453	H	0.759555	0.185367	0.044185
454	C	0.726997	0.462554	0.314408
455	C	0.715708	0.487675	0.308286
456	C	0.7347	0.022075	0.326201
457	C	0.765633	0.033042	0.018944
458	C	0.776554	0.007572	0.026121
459	H	0.726419	0.039413	0.317501
460	H	0.693854	0.481423	0.289193
461	C	0.757677	0.473315	0.00749
462	H	0.765746	0.455741	0.015885
463	O	0.80545	0.014986	0.051438
464	H	0.797388	0.011523	0.082506
465	N	0.706761	0.429129	0.297161
466	H	0.682998	0.42302	0.287176
467	N	0.786245	0.066991	0.034581
468	H	0.810128	0.073301	0.044061
469	C	0.532931	0.263521	0.314474
470	C	0.507808	0.227111	0.30835
471	C	0.973405	0.211706	0.32625
472	C	0.962439	0.231668	0.019002
473	C	0.987915	0.268055	0.026199
474	H	0.956066	0.186089	0.317536
475	H	0.514059	0.211519	0.289234
476	C	0.522169	0.283438	0.007564
477	H	0.539756	0.309074	0.01597
478	O	0.980505	0.289533	0.051528
479	H	0.98396	0.28492	0.082593
480	N	0.566353	0.276715	0.297221
481	H	0.572465	0.259064	0.287235
482	N	0.928489	0.218335	0.034632
483	H	0.922185	0.235909	0.044126
484	C	0.628536	0.321295	0.620988
485	N	0.653924	0.356178	0.288026
486	C	0.689128	0.366935	0.287639
487	N	0.69863	0.341553	0.288044
488	C	0.674189	0.306348	0.287668
489	N	0.639305	0.296854	0.288066
490	C	0.715129	0.402873	0.29309
491	C	0.684126	0.28035	0.293182
492	C	0.592597	0.311341	0.293133
493	O	0.657386	0.2461	0.294486
494	O	0.585067	0.338067	0.294398
495	O	0.749381	0.41039	0.294366
496	C	0.865875	0.17446	0.708796
497	N	0.840023	0.139756	0.375084
498	C	0.804949	0.129597	0.37544
499	N	0.796097	0.155449	0.375121
500	C	0.821015	0.19052	0.375493
501	N	0.855719	0.199375	0.375137
502	C	0.778462	0.093729	0.370727
503	C	0.811647	0.217022	0.370833
504	C	0.901738	0.183818	0.370743
505	O	0.838771	0.251088	0.36974
506	O	0.908673	0.15669	0.369614
507	O	0.744393	0.086776	0.369627
508	C	0.73194	0.268499	0.647877
509	C	0.768353	0.279795	0.641766
510	C	0.783763	0.260808	0.659691
511	C	0.763796	0.229872	0.352427
512	C	0.727407	0.218951	0.359607
513	H	0.809384	0.269091	0.650989
514	H	0.78395	0.301642	0.622662
515	C	0.712033	0.237839	0.340995
516	H	0.686371	0.229742	0.349335
517	O	0.705919	0.190044	0.384905
518	H	0.710514	0.198093	0.415979
519	N	0.718748	0.288723	0.6306
520	H	0.736399	0.312478	0.620593
521	N	0.777131	0.209252	0.368043
522	H	0.759555	0.185367	0.377519
523	C	0.726997	0.462554	0.647741
524	C	0.715708	0.487675	0.64162
525	C	0.7347	0.022075	0.659535
526	C	0.765633	0.033042	0.352277
527	C	0.776554	0.007572	0.359454
528	H	0.726419	0.039413	0.650833
529	H	0.693854	0.481423	0.622526
530	C	0.757677	0.473315	0.340822
531	H	0.765746	0.455741	0.349218
532	O	0.80545	0.014986	0.384769
533	H	0.797388	0.011523	0.41584
534	N	0.706761	0.429129	0.630493
535	H	0.682998	0.42302	0.62051
536	N	0.786245	0.066991	0.367914
537	H	0.810128	0.073301	0.377393
538	C	0.532931	0.263521	0.647807
539	C	0.507808	0.227111	0.641683
540	C	0.973405	0.211706	0.659584
541	C	0.962439	0.231668	0.352334
542	C	0.987915	0.268055	0.359531
543	H	0.956066	0.186089	0.650869
544	H	0.514059	0.211519	0.622569
545	C	0.522169	0.283438	0.340895
546	H	0.539756	0.309074	0.349305
547	O	0.980505	0.289533	0.384862
548	H	0.98396	0.28492	0.415926
549	N	0.566353	0.276715	0.630553
550	H	0.572465	0.259064	0.620569
551	N	0.928489	0.218335	0.367964
552	H	0.922185	0.235909	0.377459
553	C	0.628536	0.321295	0.95432
554	N	0.653924	0.356178	0.62136
555	C	0.689128	0.366935	0.620971
556	N	0.69863	0.341553	0.621376
557	C	0.674189	0.306348	0.621001
558	N	0.639305	0.296854	0.6214
559	C	0.715129	0.402873	0.626425
560	C	0.684126	0.28035	0.626514
561	C	0.592597	0.311341	0.626465
562	O	0.657386	0.2461	0.62782
563	O	0.585067	0.338067	0.62773
564	O	0.749381	0.41039	0.6277
565	C	0.865875	0.17446	0.042129
566	N	0.840023	0.139756	0.708417
567	C	0.804949	0.129597	0.708772
568	N	0.796097	0.155449	0.708457
569	C	0.821015	0.19052	0.708829
570	N	0.855719	0.199375	0.70847
571	C	0.778462	0.093729	0.704059
572	C	0.811647	0.217022	0.704166
573	C	0.901738	0.183818	0.704076
574	O	0.838771	0.251088	0.703073
575	O	0.908673	0.15669	0.70295
576	O	0.744393	0.086776	0.70296
577	C	0.73194	0.268499	0.981209
578	C	0.768353	0.279795	0.975098
579	C	0.783763	0.260808	0.993023
580	C	0.763796	0.229872	0.685759
581	C	0.727407	0.218951	0.69294
582	H	0.809384	0.269091	0.984322
583	H	0.78395	0.301642	0.955994
584	C	0.712033	0.237839	0.674327
585	H	0.686371	0.229742	0.68267
586	O	0.705919	0.190044	0.718238
587	H	0.710514	0.198093	0.749312
588	N	0.718748	0.288723	0.963932
589	H	0.736399	0.312478	0.953925
590	N	0.777131	0.209252	0.701376
591	H	0.759555	0.185367	0.710851
592	C	0.726997	0.462554	0.981073
593	C	0.715708	0.487675	0.974952
594	C	0.7347	0.022075	0.992867
595	C	0.765633	0.033042	0.68561
596	C	0.776554	0.007572	0.692787
597	H	0.726419	0.039413	0.984165
598	H	0.693854	0.481423	0.955858
599	C	0.757677	0.473315	0.674155
600	H	0.765746	0.455741	0.682551
601	O	0.80545	0.014986	0.718102
602	H	0.797388	0.011523	0.749172
603	N	0.706761	0.429129	0.963826
604	H	0.682998	0.42302	0.953842
605	N	0.786245	0.066991	0.701246
606	H	0.810128	0.073301	0.710729
607	C	0.532931	0.263521	0.98114
608	C	0.507808	0.227111	0.975015
609	C	0.973405	0.211706	0.992917
610	C	0.962439	0.231668	0.685666
611	C	0.987915	0.268055	0.692863
612	H	0.956066	0.186089	0.984202
613	H	0.514059	0.211519	0.955901
614	C	0.522169	0.283438	0.674231
615	H	0.539756	0.309074	0.682637
616	O	0.980505	0.289533	0.718195
617	H	0.98396	0.28492	0.749259
618	N	0.566353	0.276715	0.963886
619	H	0.572465	0.259064	0.953902
620	N	0.928489	0.218335	0.701296
621	H	0.922185	0.235909	0.710792
622	C	0.628537	0.821296	0.287654
623	N	0.653924	0.85618	0.954692
624	C	0.689128	0.866934	0.954304
625	N	0.698631	0.841555	0.954709
626	C	0.674188	0.806347	0.954334
627	N	0.639304	0.796853	0.954732
628	C	0.71513	0.902875	0.959757
629	C	0.684126	0.780352	0.959847
630	C	0.592596	0.81134	0.959797
631	O	0.657386	0.7461	0.961152
632	O	0.585068	0.838069	0.961063
633	O	0.74938	0.910389	0.961033
634	C	0.865875	0.67446	0.375463
635	N	0.840023	0.639757	0.04175
636	C	0.804946	0.629596	0.042106
637	N	0.796097	0.65545	0.04179
638	C	0.821015	0.69052	0.042162
639	N	0.855718	0.699374	0.041803
640	C	0.778462	0.593729	0.037395
641	C	0.811647	0.717023	0.037499
642	C	0.901738	0.683818	0.037412
643	O	0.838771	0.751088	0.036408
644	O	0.908672	0.656688	0.036283
645	O	0.744393	0.586775	0.036294
646	C	0.731941	0.768501	0.314543
647	C	0.768352	0.779794	0.308433
648	C	0.783763	0.760808	0.326357
649	C	0.763795	0.72987	0.019093
650	C	0.727408	0.718952	0.026275
651	H	0.809383	0.76909	0.317655
652	H	0.783951	0.801644	0.289329
653	C	0.712033	0.737839	0.007662
654	H	0.686372	0.729743	0.016003
655	O	0.705919	0.690044	0.051572
656	H	0.710514	0.698093	0.082645
657	N	0.718747	0.788722	0.297265
658	H	0.7364	0.81248	0.287259
659	N	0.777131	0.709253	0.034711
660	H	0.759555	0.685368	0.044185
661	C	0.726996	0.962553	0.314408
662	C	0.715709	0.987677	0.308286
663	C	0.7347	0.522075	0.326201
664	C	0.765632	0.533041	0.018944
665	C	0.776554	0.507572	0.026121
666	H	0.726419	0.539413	0.317501
667	H	0.693854	0.981422	0.289193
668	C	0.757678	0.973317	0.00749
669	H	0.765745	0.95574	0.015885
670	O	0.80545	0.514986	0.051438
671	H	0.797388	0.511523	0.082506
672	N	0.706761	0.929128	0.297161
673	H	0.682999	0.923022	0.287176
674	N	0.786245	0.56699	0.034581
675	H	0.810127	0.5733	0.044061
676	C	0.53293	0.763521	0.314474
677	C	0.507808	0.727109	0.30835
678	C	0.973405	0.711706	0.32625
679	C	0.962439	0.731669	0.019002
680	C	0.987915	0.768054	0.026199
681	H	0.956066	0.68609	0.317536
682	H	0.51406	0.71152	0.289234
683	C	0.522168	0.783437	0.007564
684	H	0.539757	0.809076	0.01597
685	O	0.980504	0.789532	0.051528
686	H	0.98396	0.784919	0.082593
687	N	0.566352	0.776714	0.297221
688	H	0.572465	0.759065	0.287235
689	N	0.928489	0.718335	0.034632
690	H	0.922185	0.73591	0.044126
691	C	0.628537	0.821296	0.620988
692	N	0.653924	0.85618	0.288026
693	C	0.689128	0.866934	0.287639
694	N	0.698631	0.841555	0.288044
695	C	0.674188	0.806347	0.287668
696	N	0.639304	0.796853	0.288066
697	C	0.71513	0.902875	0.293091
698	C	0.684126	0.780352	0.293182
699	C	0.592596	0.81134	0.293133
700	O	0.657386	0.7461	0.294486
701	O	0.585068	0.838069	0.294398
702	O	0.74938	0.910389	0.294366
703	C	0.865875	0.67446	0.708796
704	N	0.840023	0.639757	0.375084
705	C	0.804946	0.629596	0.37544
706	N	0.796097	0.65545	0.375121
707	C	0.821015	0.69052	0.375493
708	N	0.855718	0.699374	0.375137
709	C	0.778462	0.593729	0.370727
710	C	0.811647	0.717023	0.370833
711	C	0.901738	0.683818	0.370743
712	O	0.838771	0.751088	0.36974
713	O	0.908672	0.656688	0.369614
714	O	0.744393	0.586775	0.369627
715	C	0.731941	0.768501	0.647877
716	C	0.768352	0.779794	0.641766
717	C	0.783763	0.760808	0.659691
718	C	0.763795	0.72987	0.352427
719	C	0.727408	0.718952	0.359607
720	H	0.809383	0.76909	0.650989
721	H	0.783951	0.801644	0.622662
722	C	0.712033	0.737839	0.340995
723	H	0.686372	0.729743	0.349335
724	O	0.705919	0.690044	0.384905
725	H	0.710514	0.698093	0.415979
726	N	0.718747	0.788722	0.6306
727	H	0.7364	0.81248	0.620593
728	N	0.777131	0.709253	0.368043
729	H	0.759555	0.685368	0.377519
730	C	0.726996	0.962553	0.647741
731	C	0.715709	0.987677	0.64162
732	C	0.7347	0.522075	0.659535
733	C	0.765632	0.533041	0.352277
734	C	0.776554	0.507572	0.359454
735	H	0.726419	0.539413	0.650833
736	H	0.693854	0.981422	0.622526
737	C	0.757678	0.973317	0.340822
738	H	0.765745	0.95574	0.349218
739	O	0.80545	0.514986	0.384769
740	H	0.797388	0.511523	0.41584
741	N	0.706761	0.929128	0.630493
742	H	0.682999	0.923022	0.62051
743	N	0.786245	0.56699	0.367914
744	H	0.810127	0.5733	0.377393
745	C	0.53293	0.763521	0.647807
746	C	0.507808	0.727109	0.641683
747	C	0.973405	0.711706	0.659584
748	C	0.962439	0.731669	0.352334
749	C	0.987915	0.768054	0.359531
750	H	0.956066	0.68609	0.650869
751	H	0.51406	0.71152	0.622569
752	C	0.522168	0.783437	0.340895
753	H	0.539757	0.809076	0.349305
754	O	0.980504	0.789532	0.384862
755	H	0.98396	0.784919	0.415926
756	N	0.566352	0.776714	0.630553
757	H	0.572465	0.759065	0.620569
758	N	0.928489	0.718335	0.367964
759	H	0.922185	0.73591	0.377459
760	C	0.628537	0.821296	0.95432
761	N	0.653924	0.85618	0.62136
762	C	0.689128	0.866934	0.620971
763	N	0.698631	0.841555	0.621376
764	C	0.674188	0.806347	0.621001
765	N	0.639304	0.796853	0.6214
766	C	0.71513	0.902875	0.626425
767	C	0.684126	0.780352	0.626514
768	C	0.592596	0.81134	0.626465
769	O	0.657386	0.7461	0.62782
770	O	0.585068	0.838069	0.62773
771	O	0.74938	0.910389	0.6277
772	C	0.865875	0.67446	0.042129
773	N	0.840023	0.639757	0.708417
774	C	0.804946	0.629596	0.708772
775	N	0.796097	0.65545	0.708457
776	C	0.821015	0.69052	0.708829
777	N	0.855718	0.699374	0.70847
778	C	0.778462	0.593729	0.704059
779	C	0.811647	0.717023	0.704166
780	C	0.901738	0.683818	0.704076
781	O	0.838771	0.751088	0.703073
782	O	0.908672	0.656688	0.70295
783	O	0.744393	0.586775	0.70296
784	C	0.731941	0.768501	0.981209
785	C	0.768352	0.779794	0.975098
786	C	0.783763	0.760808	0.993023
787	C	0.763795	0.72987	0.685759
788	C	0.727408	0.718952	0.69294
789	H	0.809383	0.76909	0.984322
790	H	0.783951	0.801644	0.955994
791	C	0.712033	0.737839	0.674327
792	H	0.686372	0.729743	0.68267
793	O	0.705919	0.690044	0.718238
794	H	0.710514	0.698093	0.749312
795	N	0.718747	0.788722	0.963932
796	H	0.7364	0.81248	0.953925
797	N	0.777131	0.709253	0.701376
798	H	0.759555	0.685368	0.710851
799	C	0.726996	0.962553	0.981073
800	C	0.715709	0.987677	0.974952
801	C	0.7347	0.522075	0.992867
802	C	0.765632	0.533041	0.68561
803	C	0.776554	0.507572	0.692787
804	H	0.726419	0.539413	0.984165
805	H	0.693854	0.981422	0.955858
806	C	0.757678	0.973317	0.674155
807	H	0.765745	0.95574	0.682551
808	O	0.80545	0.514986	0.718102
809	H	0.797388	0.511523	0.749172
810	N	0.706761	0.929128	0.963826
811	H	0.682999	0.923022	0.953842
812	N	0.786245	0.56699	0.701246
813	H	0.810127	0.5733	0.710729
814	C	0.53293	0.763521	0.98114
815	C	0.507808	0.727109	0.975015
816	C	0.973405	0.711706	0.992917
817	C	0.962439	0.731669	0.685666
818	C	0.987915	0.768054	0.692863
819	H	0.956066	0.68609	0.984202
820	H	0.51406	0.71152	0.955901
821	C	0.522168	0.783437	0.674231
822	H	0.539757	0.809076	0.682637
823	O	0.980504	0.789532	0.718195
824	H	0.98396	0.784919	0.749259
825	N	0.566352	0.776714	0.963886
826	H	0.572465	0.759065	0.953902
827	N	0.928489	0.718335	0.701296
828	H	0.922185	0.73591	0.710792
