data_C432H216N144O144_2018-02-15_10:45:46
#******************************************
#
# CIF file created by Zeo++
# Zeo++ is an open source package to
# analyze microporous materials
#
#*******************************************

_cell_length_a		45.6713   
_cell_length_b		45.6713   
_cell_length_c		29.0934   
_cell_angle_alpha		90   
_cell_angle_beta		90   
_cell_angle_gamma		120   

_symmetry_space_group_name_H-M		'P1'
_symmetry_Int_Tables_number		1
_symmetry_cell_setting		Monoclinic

loop_
_symmetry_equiv_pos_as_xyz
'+x,+y,+z'

loop_
_atom_site_label
_atom_site_type_symbol
_atom_site_fract_x
_atom_site_fract_y
_atom_site_fract_z
1	C	0.214931	0.338505	0.016599
2	C	0.22452	0.373256	0.016616
3	C	0.200451	0.384219	0.016599
4	C	0.165699	0.359057	0.016616
5	C	0.154737	0.324025	0.016601
6	C	0.179898	0.314433	0.016619
7	H	0.147901	0.366447	0.016486
8	H	0.172508	0.289246	0.016484
9	H	0.249709	0.391055	0.016486
10	C	0.209918	0.418909	0.016265
11	C	0.120046	0.2988	0.016264
12	C	0.240154	0.329036	0.016262
13	H	0.264891	0.347852	0.015465
14	H	0.114124	0.274064	0.015469
15	H	0.191103	0.42483	0.015465
16	C	0.331815	0.19266	0.015609
17	C	0.322225	0.157908	0.01559
18	H	0.297038	0.140111	0.015722
19	C	0.336829	0.112255	0.015944
20	C	0.30659	0.202127	0.015945
21	H	0.281855	0.183313	0.016741
22	C	0.253468	0.28201	0.01683
23	C	0.237736	0.246211	0.019897
24	C	0.257615	0.230408	0.019099
25	C	0.293278	0.249155	0.348715
26	C	0.30901	0.284953	0.345649
27	H	0.245629	0.204675	0.021594
28	C	0.28913	0.300755	0.346447
29	H	0.301117	0.32649	0.343948
30	N	0.202427	0.224403	0.024324
31	O	0.186622	0.226649	0.990429
32	O	0.191216	0.230316	0.060465
33	N	0.233633	0.296565	0.017453
34	N	0.313113	0.2346	0.34809
35	C	0.256945	0.479249	0.016831
36	C	0.292743	0.499316	0.019898
37	C	0.308546	0.034998	0.0191
38	C	0.289799	0.051914	0.348715
39	C	0.254002	0.031849	0.345649
40	H	0.334281	0.048745	0.021596
41	C	0.238199	0.496166	0.346447
42	H	0.212466	0.48242	0.343944
43	N	0.232194	0.045349	0.34121
44	N	0.314552	0.485815	0.024327
45	O	0.234438	0.063404	0.375099
46	O	0.312306	0.467763	0.990432
47	O	0.308638	0.468691	0.060467
48	O	0.23811	0.062468	0.305064
49	N	0.24239	0.444859	0.017454
50	N	0.304356	0.086305	0.34809
51	C	0.059705	0.285486	0.01683
52	C	0.03964	0.30122	0.019896
53	C	0.042789	0.249824	0.34645
54	H	0.056536	0.237839	0.343948
55	N	0.053139	0.336527	0.024323
56	O	0.071191	0.352334	0.990425
57	O	0.070263	0.347738	0.060464
58	N	0.094096	0.305323	0.017453
59	C	0.214931	0.338505	0.349932
60	C	0.22452	0.373256	0.349949
61	C	0.200451	0.384219	0.349932
62	C	0.165699	0.359057	0.349949
63	C	0.154737	0.324025	0.349935
64	C	0.179898	0.314433	0.349953
65	H	0.147901	0.366447	0.349819
66	H	0.172508	0.289246	0.349819
67	H	0.249709	0.391055	0.349819
68	C	0.209918	0.418909	0.349599
69	C	0.120046	0.2988	0.349595
70	C	0.240154	0.329036	0.349595
71	H	0.264891	0.347852	0.348798
72	H	0.114124	0.274064	0.348801
73	H	0.191103	0.42483	0.348798
74	C	0.331815	0.19266	0.348942
75	C	0.322225	0.157908	0.348925
76	H	0.297038	0.140111	0.349056
77	C	0.336829	0.112255	0.349275
78	C	0.30659	0.202127	0.349279
79	H	0.281855	0.183313	0.350073
80	C	0.253468	0.28201	0.350162
81	C	0.237736	0.246211	0.353232
82	C	0.257615	0.230408	0.352431
83	C	0.293278	0.249155	0.682045
84	C	0.30901	0.284953	0.678983
85	H	0.245629	0.204675	0.354926
86	C	0.28913	0.300755	0.67978
87	H	0.301117	0.32649	0.677278
88	N	0.202427	0.224403	0.357655
89	O	0.186622	0.226649	0.323761
90	O	0.191216	0.230316	0.393798
91	N	0.233633	0.296565	0.350784
92	N	0.313113	0.2346	0.681423
93	C	0.256945	0.479249	0.350162
94	C	0.292743	0.499316	0.353232
95	C	0.308546	0.034998	0.352434
96	C	0.289799	0.051914	0.682045
97	C	0.254002	0.031849	0.678983
98	H	0.334281	0.048745	0.35493
99	C	0.238199	0.496166	0.67978
100	H	0.212466	0.48242	0.677278
101	N	0.232194	0.045349	0.674542
102	N	0.314552	0.485815	0.357659
103	O	0.234438	0.063404	0.708433
104	O	0.312306	0.467763	0.323765
105	O	0.308638	0.468691	0.393801
106	O	0.23811	0.062468	0.638396
107	N	0.24239	0.444859	0.350788
108	N	0.304356	0.086305	0.68142
109	C	0.059705	0.285486	0.350162
110	C	0.03964	0.30122	0.353228
111	C	0.042789	0.249824	0.67978
112	H	0.056536	0.237839	0.677278
113	N	0.053139	0.336527	0.357655
114	O	0.071191	0.352334	0.323761
115	O	0.070263	0.347738	0.393798
116	N	0.094096	0.305323	0.350784
117	C	0.214931	0.338505	0.683266
118	C	0.22452	0.373256	0.683283
119	C	0.200451	0.384219	0.683266
120	C	0.165699	0.359057	0.683283
121	C	0.154737	0.324025	0.683266
122	C	0.179898	0.314433	0.683283
123	H	0.147901	0.366447	0.683152
124	H	0.172508	0.289246	0.683149
125	H	0.249709	0.391055	0.683152
126	C	0.209918	0.418909	0.682932
127	C	0.120046	0.2988	0.682929
128	C	0.240154	0.329036	0.682929
129	H	0.264891	0.347852	0.682131
130	H	0.114124	0.274064	0.682135
131	H	0.191103	0.42483	0.682131
132	C	0.331815	0.19266	0.682276
133	C	0.322225	0.157908	0.682255
134	H	0.297038	0.140111	0.682389
135	C	0.336829	0.112255	0.682609
136	C	0.30659	0.202127	0.682613
137	H	0.281855	0.183313	0.683407
138	C	0.253468	0.28201	0.683496
139	C	0.237736	0.246211	0.686562
140	C	0.257615	0.230408	0.685765
141	C	0.293278	0.249155	0.015379
142	C	0.30901	0.284953	0.012317
143	H	0.245629	0.204675	0.68826
144	C	0.28913	0.300755	0.013114
145	H	0.301117	0.32649	0.010612
146	N	0.202427	0.224403	0.690989
147	O	0.186622	0.226649	0.657095
148	O	0.191216	0.230316	0.727131
149	N	0.233633	0.296565	0.684118
150	N	0.313113	0.2346	0.014754
151	C	0.256945	0.479249	0.683496
152	C	0.292743	0.499316	0.686565
153	C	0.308546	0.034998	0.685765
154	C	0.289799	0.051914	0.015379
155	C	0.254002	0.031849	0.012313
156	H	0.334281	0.048745	0.68826
157	C	0.238199	0.496166	0.013114
158	H	0.212466	0.48242	0.010612
159	N	0.232194	0.045349	0.007876
160	N	0.314552	0.485815	0.690993
161	O	0.234438	0.063404	0.041766
162	O	0.312306	0.467763	0.657098
163	O	0.308638	0.468691	0.727135
164	O	0.23811	0.062468	0.97173
165	N	0.24239	0.444859	0.684122
166	N	0.304356	0.086305	0.014754
167	C	0.059705	0.285486	0.683496
168	C	0.03964	0.30122	0.686562
169	C	0.042789	0.249824	0.013114
170	H	0.056536	0.237839	0.010612
171	N	0.053139	0.336527	0.690989
172	O	0.071191	0.352334	0.657095
173	O	0.070263	0.347738	0.727128
174	N	0.094096	0.305323	0.684118
175	C	0.21493	0.838503	0.016599
176	C	0.224521	0.873257	0.016616
177	C	0.20045	0.884217	0.016599
178	C	0.165698	0.859056	0.016616
179	C	0.154736	0.824024	0.016601
180	C	0.179898	0.814434	0.016619
181	H	0.147901	0.866446	0.016486
182	H	0.17251	0.789247	0.016484
183	H	0.249708	0.891054	0.016486
184	C	0.209917	0.91891	0.016265
185	C	0.120044	0.798799	0.016264
186	C	0.240155	0.829038	0.016262
187	H	0.264889	0.84785	0.015465
188	H	0.114123	0.774065	0.015469
189	H	0.191104	0.924832	0.015465
190	C	0.331814	0.692659	0.015609
191	C	0.322224	0.657908	0.01559
192	H	0.297037	0.640111	0.015722
193	C	0.336827	0.612255	0.015944
194	C	0.30659	0.702128	0.015945
195	H	0.281854	0.683312	0.016741
196	C	0.253467	0.782009	0.01683
197	C	0.237735	0.746211	0.019897
198	C	0.257615	0.730409	0.019099
199	C	0.293278	0.749156	0.348715
200	C	0.30901	0.784954	0.345649
201	H	0.245629	0.704676	0.021594
202	C	0.28913	0.800756	0.346447
203	H	0.301116	0.826489	0.343948
204	N	0.202427	0.724404	0.024324
205	O	0.186621	0.72665	0.990429
206	O	0.191215	0.730316	0.060465
207	N	0.233632	0.796564	0.017453
208	N	0.313113	0.734601	0.34809
209	C	0.256946	0.979251	0.016831
210	C	0.292742	0.999315	0.019898
211	C	0.308546	0.534998	0.0191
212	C	0.2898	0.551915	0.348715
213	C	0.254001	0.531848	0.345649
214	H	0.33428	0.548747	0.021596
215	C	0.238199	0.996167	0.346447
216	H	0.212464	0.982419	0.343944
217	N	0.232194	0.545349	0.34121
218	N	0.31455	0.985814	0.024327
219	O	0.234437	0.563403	0.375099
220	O	0.312306	0.967765	0.990432
221	O	0.308638	0.968692	0.060467
222	O	0.238109	0.562468	0.305064
223	N	0.24239	0.944861	0.017454
224	N	0.304354	0.586304	0.34809
225	C	0.059705	0.785488	0.01683
226	C	0.039638	0.801219	0.019896
227	C	0.042788	0.749824	0.34645
228	H	0.056537	0.73784	0.343948
229	N	0.053139	0.836529	0.024323
230	O	0.07119	0.852333	0.990425
231	O	0.070264	0.847739	0.060464
232	N	0.094094	0.805322	0.017453
233	C	0.21493	0.838503	0.349932
234	C	0.224521	0.873257	0.349949
235	C	0.20045	0.884217	0.349932
236	C	0.165698	0.859056	0.349949
237	C	0.154736	0.824024	0.349935
238	C	0.179898	0.814434	0.349953
239	H	0.147901	0.866446	0.349819
240	H	0.17251	0.789247	0.349819
241	H	0.249708	0.891054	0.349819
242	C	0.209917	0.91891	0.349599
243	C	0.120044	0.798799	0.349595
244	C	0.240155	0.829038	0.349595
245	H	0.264889	0.84785	0.348798
246	H	0.114123	0.774065	0.348801
247	H	0.191104	0.924832	0.348798
248	C	0.331814	0.692659	0.348942
249	C	0.322224	0.657908	0.348925
250	H	0.297037	0.640111	0.349056
251	C	0.336827	0.612255	0.349275
252	C	0.30659	0.702128	0.349279
253	H	0.281854	0.683312	0.350073
254	C	0.253467	0.782009	0.350162
255	C	0.237735	0.746211	0.353232
256	C	0.257615	0.730409	0.352431
257	C	0.293278	0.749156	0.682045
258	C	0.30901	0.784954	0.678983
259	H	0.245629	0.704676	0.354926
260	C	0.28913	0.800756	0.67978
261	H	0.301116	0.826489	0.677278
262	N	0.202427	0.724404	0.357655
263	O	0.186621	0.72665	0.323761
264	O	0.191215	0.730316	0.393798
265	N	0.233632	0.796564	0.350784
266	N	0.313113	0.734601	0.681423
267	C	0.256946	0.979251	0.350162
268	C	0.292742	0.999315	0.353232
269	C	0.308546	0.534998	0.352434
270	C	0.2898	0.551915	0.682045
271	C	0.254001	0.531848	0.678983
272	H	0.33428	0.548747	0.35493
273	C	0.238199	0.996167	0.67978
274	H	0.212464	0.982419	0.677278
275	N	0.232194	0.545349	0.674542
276	N	0.31455	0.985814	0.357659
277	O	0.234437	0.563403	0.708433
278	O	0.312306	0.967765	0.323765
279	O	0.308638	0.968692	0.393801
280	O	0.238109	0.562468	0.638396
281	N	0.24239	0.944861	0.350788
282	N	0.304354	0.586304	0.68142
283	C	0.059705	0.785488	0.350162
284	C	0.039638	0.801219	0.353228
285	C	0.042788	0.749824	0.67978
286	H	0.056537	0.73784	0.677278
287	N	0.053139	0.836529	0.357655
288	O	0.07119	0.852333	0.323761
289	O	0.070264	0.847739	0.393798
290	N	0.094094	0.805322	0.350784
291	C	0.21493	0.838503	0.683266
292	C	0.224521	0.873257	0.683283
293	C	0.20045	0.884217	0.683266
294	C	0.165698	0.859056	0.683283
295	C	0.154736	0.824024	0.683266
296	C	0.179898	0.814434	0.683283
297	H	0.147901	0.866446	0.683152
298	H	0.17251	0.789247	0.683149
299	H	0.249708	0.891054	0.683152
300	C	0.209917	0.91891	0.682932
301	C	0.120044	0.798799	0.682929
302	C	0.240155	0.829038	0.682929
303	H	0.264889	0.84785	0.682131
304	H	0.114123	0.774065	0.682135
305	H	0.191104	0.924832	0.682131
306	C	0.331814	0.692659	0.682276
307	C	0.322224	0.657908	0.682255
308	H	0.297037	0.640111	0.682389
309	C	0.336827	0.612255	0.682609
310	C	0.30659	0.702128	0.682613
311	H	0.281854	0.683312	0.683407
312	C	0.253467	0.782009	0.683496
313	C	0.237735	0.746211	0.686562
314	C	0.257615	0.730409	0.685765
315	C	0.293278	0.749156	0.015379
316	C	0.30901	0.784954	0.012317
317	H	0.245629	0.704676	0.68826
318	C	0.28913	0.800756	0.013114
319	H	0.301116	0.826489	0.010612
320	N	0.202427	0.724404	0.690989
321	O	0.186621	0.72665	0.657095
322	O	0.191215	0.730316	0.727131
323	N	0.233632	0.796564	0.684118
324	N	0.313113	0.734601	0.014754
325	C	0.256946	0.979251	0.683496
326	C	0.292742	0.999315	0.686565
327	C	0.308546	0.534998	0.685765
328	C	0.2898	0.551915	0.015379
329	C	0.254001	0.531848	0.012313
330	H	0.33428	0.548747	0.68826
331	C	0.238199	0.996167	0.013114
332	H	0.212464	0.982419	0.010612
333	N	0.232194	0.545349	0.007876
334	N	0.31455	0.985814	0.690993
335	O	0.234437	0.563403	0.041766
336	O	0.312306	0.967765	0.657098
337	O	0.308638	0.968692	0.727135
338	O	0.238109	0.562468	0.97173
339	N	0.24239	0.944861	0.684122
340	N	0.304354	0.586304	0.014754
341	C	0.059705	0.785488	0.683496
342	C	0.039638	0.801219	0.686562
343	C	0.042788	0.749824	0.013114
344	H	0.056537	0.73784	0.010612
345	N	0.053139	0.836529	0.690989
346	O	0.07119	0.852333	0.657095
347	O	0.070264	0.847739	0.727128
348	N	0.094094	0.805322	0.684118
349	C	0.346294	0.146946	0.015609
350	C	0.381047	0.172108	0.015592
351	C	0.392009	0.20714	0.015607
352	C	0.366847	0.21673	0.015592
353	H	0.398844	0.164718	0.015722
354	H	0.374236	0.241918	0.015721
355	C	0.426701	0.232364	0.015944
356	H	0.432622	0.257099	0.016741
357	H	0.355641	0.106334	0.016745
358	N	0.344319	0.306762	0.341212
359	O	0.360129	0.304517	0.375103
360	O	0.355523	0.300846	0.305067
361	C	0.503957	0.28134	0.019098
362	C	0.487041	0.245677	0.348712
363	C	0.507107	0.229945	0.345649
364	H	0.490209	0.293327	0.021593
365	N	0.493606	0.194637	0.341212
366	O	0.47555	0.178826	0.375103
367	O	0.476487	0.183432	0.305067
368	N	0.45265	0.225842	0.34809
369	C	0.346294	0.146946	0.348942
370	C	0.381047	0.172108	0.348925
371	C	0.392009	0.20714	0.348939
372	C	0.366847	0.21673	0.348925
373	H	0.398844	0.164718	0.349056
374	H	0.374236	0.241918	0.349056
375	C	0.426701	0.232364	0.349279
376	H	0.432622	0.257099	0.350073
377	H	0.355641	0.106334	0.350076
378	N	0.344319	0.306762	0.674546
379	O	0.360129	0.304517	0.708433
380	O	0.355523	0.300846	0.6384
381	C	0.503957	0.28134	0.352431
382	C	0.487041	0.245677	0.682045
383	C	0.507107	0.229945	0.678983
384	H	0.490209	0.293327	0.354926
385	N	0.493606	0.194637	0.674546
386	O	0.47555	0.178826	0.708433
387	O	0.476487	0.183432	0.6384
388	N	0.45265	0.225842	0.68142
389	C	0.346294	0.146946	0.682276
390	C	0.381047	0.172108	0.682259
391	C	0.392009	0.20714	0.682272
392	C	0.366847	0.21673	0.682259
393	H	0.398844	0.164718	0.682389
394	H	0.374236	0.241918	0.682386
395	C	0.426701	0.232364	0.682609
396	H	0.432622	0.257099	0.683407
397	H	0.355641	0.106334	0.68341
398	N	0.344319	0.306762	0.007879
399	O	0.360129	0.304517	0.041769
400	O	0.355523	0.300846	0.971734
401	C	0.503957	0.28134	0.685765
402	C	0.487041	0.245677	0.015379
403	C	0.507107	0.229945	0.012317
404	H	0.490209	0.293327	0.68826
405	N	0.493606	0.194637	0.007879
406	O	0.47555	0.178826	0.041769
407	O	0.476487	0.183432	0.971734
408	N	0.45265	0.225842	0.014754
409	C	0.346294	0.646945	0.015609
410	C	0.381047	0.672109	0.015592
411	C	0.392009	0.707141	0.015607
412	C	0.366847	0.716731	0.015592
413	H	0.398845	0.664719	0.015722
414	H	0.374236	0.741918	0.015721
415	C	0.426699	0.732363	0.015944
416	H	0.432621	0.7571	0.016741
417	H	0.355641	0.606333	0.016745
418	N	0.344318	0.806761	0.341212
419	O	0.360128	0.804516	0.375103
420	O	0.355523	0.800847	0.305067
421	C	0.503956	0.781339	0.019098
422	C	0.48704	0.745677	0.348712
423	C	0.507105	0.729944	0.345649
424	H	0.490209	0.793325	0.021593
425	N	0.493605	0.694636	0.341212
426	O	0.475551	0.678827	0.375103
427	O	0.476486	0.683431	0.305067
428	N	0.45265	0.725843	0.34809
429	C	0.346294	0.646945	0.348942
430	C	0.381047	0.672109	0.348925
431	C	0.392009	0.707141	0.348939
432	C	0.366847	0.716731	0.348925
433	H	0.398845	0.664719	0.349056
434	H	0.374236	0.741918	0.349056
435	C	0.426699	0.732363	0.349279
436	H	0.432621	0.7571	0.350073
437	H	0.355641	0.606333	0.350076
438	N	0.344318	0.806761	0.674546
439	O	0.360128	0.804516	0.708433
440	O	0.355523	0.800847	0.6384
441	C	0.503956	0.781339	0.352431
442	C	0.48704	0.745677	0.682045
443	C	0.507105	0.729944	0.678983
444	H	0.490209	0.793325	0.354926
445	N	0.493605	0.694636	0.674546
446	O	0.475551	0.678827	0.708433
447	O	0.476486	0.683431	0.6384
448	N	0.45265	0.725843	0.68142
449	C	0.346294	0.646945	0.682276
450	C	0.381047	0.672109	0.682259
451	C	0.392009	0.707141	0.682272
452	C	0.366847	0.716731	0.682259
453	H	0.398845	0.664719	0.682389
454	H	0.374236	0.741918	0.682386
455	C	0.426699	0.732363	0.682609
456	H	0.432621	0.7571	0.683407
457	H	0.355641	0.606333	0.68341
458	N	0.344318	0.806761	0.007879
459	O	0.360128	0.804516	0.041769
460	O	0.355523	0.800847	0.971734
461	C	0.503956	0.781339	0.685765
462	C	0.48704	0.745677	0.015379
463	C	0.507105	0.729944	0.012317
464	H	0.490209	0.793325	0.68826
465	N	0.493605	0.694636	0.007879
466	O	0.475551	0.678827	0.041769
467	O	0.476486	0.683431	0.971734
468	N	0.45265	0.725843	0.014754
469	C	0.53964	0.30122	0.019896
470	C	0.53964	0.30122	0.353228
471	C	0.53964	0.30122	0.686562
472	C	0.539638	0.801219	0.019896
473	C	0.539638	0.801219	0.353228
474	C	0.539638	0.801219	0.686562
475	C	0.714932	0.338505	0.016599
476	C	0.724521	0.373256	0.016616
477	C	0.70045	0.384219	0.016599
478	C	0.6657	0.359057	0.016616
479	C	0.654737	0.324025	0.016601
480	C	0.679899	0.314433	0.016619
481	H	0.647902	0.366447	0.016486
482	H	0.672508	0.289246	0.016484
483	C	0.709917	0.418909	0.016265
484	C	0.620046	0.2988	0.016264
485	H	0.614123	0.274064	0.015469
486	H	0.691103	0.42483	0.015465
487	N	0.702428	0.224403	0.024324
488	O	0.686621	0.226649	0.990429
489	O	0.691215	0.230316	0.060465
490	N	0.733632	0.296565	0.017453
491	H	0.712466	0.48242	0.343944
492	N	0.732194	0.045349	0.34121
493	O	0.734439	0.063404	0.375099
494	C	0.559705	0.285486	0.01683
495	C	0.542789	0.249824	0.34645
496	H	0.556535	0.237839	0.343948
497	N	0.55314	0.336527	0.024323
498	O	0.571192	0.352334	0.990425
499	O	0.570262	0.347738	0.060464
500	N	0.594096	0.305323	0.017453
501	C	0.714932	0.338505	0.349932
502	C	0.724521	0.373256	0.349949
503	C	0.70045	0.384219	0.349932
504	C	0.6657	0.359057	0.349949
505	C	0.654737	0.324025	0.349935
506	C	0.679899	0.314433	0.349953
507	H	0.647902	0.366447	0.349819
508	H	0.672508	0.289246	0.349819
509	C	0.709917	0.418909	0.349599
510	C	0.620046	0.2988	0.349595
511	H	0.614123	0.274064	0.348801
512	H	0.691103	0.42483	0.348798
513	N	0.702428	0.224403	0.357655
514	O	0.686621	0.226649	0.323761
515	O	0.691215	0.230316	0.393798
516	N	0.733632	0.296565	0.350784
517	H	0.712466	0.48242	0.677278
518	N	0.732194	0.045349	0.674542
519	O	0.734439	0.063404	0.708433
520	C	0.559705	0.285486	0.350162
521	C	0.542789	0.249824	0.67978
522	H	0.556535	0.237839	0.677278
523	N	0.55314	0.336527	0.357655
524	O	0.571192	0.352334	0.323761
525	O	0.570262	0.347738	0.393798
526	N	0.594096	0.305323	0.350784
527	C	0.714932	0.338505	0.683266
528	C	0.724521	0.373256	0.683283
529	C	0.70045	0.384219	0.683266
530	C	0.6657	0.359057	0.683283
531	C	0.654737	0.324025	0.683266
532	C	0.679899	0.314433	0.683283
533	H	0.647902	0.366447	0.683152
534	H	0.672508	0.289246	0.683149
535	C	0.709917	0.418909	0.682932
536	C	0.620046	0.2988	0.682929
537	H	0.614123	0.274064	0.682135
538	H	0.691103	0.42483	0.682131
539	N	0.702428	0.224403	0.690989
540	O	0.686621	0.226649	0.657095
541	O	0.691215	0.230316	0.727131
542	N	0.733632	0.296565	0.684118
543	H	0.712466	0.48242	0.010612
544	N	0.732194	0.045349	0.007876
545	O	0.734439	0.063404	0.041766
546	C	0.559705	0.285486	0.683496
547	C	0.542789	0.249824	0.013114
548	H	0.556535	0.237839	0.010612
549	N	0.55314	0.336527	0.690989
550	O	0.571192	0.352334	0.657095
551	O	0.570262	0.347738	0.727128
552	N	0.594096	0.305323	0.684118
553	C	0.714929	0.838503	0.016599
554	C	0.72452	0.873257	0.016616
555	C	0.700449	0.884217	0.016599
556	C	0.665697	0.859056	0.016616
557	C	0.654737	0.824024	0.016601
558	C	0.679897	0.814434	0.016619
559	H	0.6479	0.866446	0.016486
560	H	0.672508	0.789247	0.016484
561	C	0.709918	0.91891	0.016265
562	C	0.620045	0.798799	0.016264
563	H	0.614124	0.774065	0.015469
564	H	0.691103	0.924832	0.015465
565	N	0.702426	0.724404	0.024324
566	O	0.686621	0.72665	0.990429
567	O	0.691215	0.730316	0.060465
568	N	0.733632	0.796564	0.017453
569	H	0.712465	0.982419	0.343944
570	N	0.732194	0.545349	0.34121
571	O	0.734438	0.563403	0.375099
572	C	0.559705	0.785488	0.01683
573	C	0.542788	0.749824	0.34645
574	H	0.556536	0.73784	0.343948
575	N	0.55314	0.836529	0.024323
576	O	0.57119	0.852333	0.990425
577	O	0.570263	0.847739	0.060464
578	N	0.594095	0.805322	0.017453
579	C	0.714929	0.838503	0.349932
580	C	0.72452	0.873257	0.349949
581	C	0.700449	0.884217	0.349932
582	C	0.665697	0.859056	0.349949
583	C	0.654737	0.824024	0.349935
584	C	0.679897	0.814434	0.349953
585	H	0.6479	0.866446	0.349819
586	H	0.672508	0.789247	0.349819
587	C	0.709918	0.91891	0.349599
588	C	0.620045	0.798799	0.349595
589	H	0.614124	0.774065	0.348801
590	H	0.691103	0.924832	0.348798
591	N	0.702426	0.724404	0.357655
592	O	0.686621	0.72665	0.323761
593	O	0.691215	0.730316	0.393798
594	N	0.733632	0.796564	0.350784
595	H	0.712465	0.982419	0.677278
596	N	0.732194	0.545349	0.674542
597	O	0.734438	0.563403	0.708433
598	C	0.559705	0.785488	0.350162
599	C	0.542788	0.749824	0.67978
600	H	0.556536	0.73784	0.677278
601	N	0.55314	0.836529	0.357655
602	O	0.57119	0.852333	0.323761
603	O	0.570263	0.847739	0.393798
604	N	0.594095	0.805322	0.350784
605	C	0.714929	0.838503	0.683266
606	C	0.72452	0.873257	0.683283
607	C	0.700449	0.884217	0.683266
608	C	0.665697	0.859056	0.683283
609	C	0.654737	0.824024	0.683266
610	C	0.679897	0.814434	0.683283
611	H	0.6479	0.866446	0.683152
612	H	0.672508	0.789247	0.683149
613	C	0.709918	0.91891	0.682932
614	C	0.620045	0.798799	0.682929
615	H	0.614124	0.774065	0.682135
616	H	0.691103	0.924832	0.682131
617	N	0.702426	0.724404	0.690989
618	O	0.686621	0.72665	0.657095
619	O	0.691215	0.730316	0.727131
620	N	0.733632	0.796564	0.684118
621	H	0.712465	0.982419	0.010612
622	N	0.732194	0.545349	0.007876
623	O	0.734438	0.563403	0.041766
624	C	0.559705	0.785488	0.683496
625	C	0.542788	0.749824	0.013114
626	H	0.556536	0.73784	0.010612
627	N	0.55314	0.836529	0.690989
628	O	0.57119	0.852333	0.657095
629	O	0.570263	0.847739	0.727128
630	N	0.594095	0.805322	0.684118
631	H	0.749709	0.391055	0.016486
632	C	0.740155	0.329036	0.016262
633	H	0.76489	0.347852	0.015465
634	C	0.831816	0.19266	0.015609
635	C	0.822226	0.157908	0.01559
636	C	0.846295	0.146946	0.015609
637	C	0.881048	0.172108	0.015592
638	C	0.892008	0.20714	0.015607
639	C	0.866848	0.21673	0.015592
640	H	0.898845	0.164718	0.015722
641	H	0.874237	0.241918	0.015721
642	H	0.797037	0.140111	0.015722
643	C	0.836828	0.112255	0.015944
644	C	0.9267	0.232364	0.015944
645	C	0.80659	0.202127	0.015945
646	H	0.781856	0.183313	0.016741
647	H	0.932621	0.257099	0.016741
648	H	0.855642	0.106334	0.016745
649	C	0.753468	0.28201	0.01683
650	C	0.737736	0.246211	0.019897
651	C	0.757616	0.230408	0.019099
652	C	0.793277	0.249155	0.348715
653	C	0.809011	0.284953	0.345649
654	H	0.74563	0.204675	0.021594
655	C	0.78913	0.300755	0.346447
656	H	0.801116	0.32649	0.343948
657	N	0.84432	0.306762	0.341212
658	O	0.860129	0.304517	0.375103
659	O	0.855522	0.300846	0.305067
660	N	0.813113	0.2346	0.34809
661	C	0.756945	0.479249	0.016831
662	C	0.792743	0.499316	0.019898
663	C	0.808547	0.034998	0.0191
664	C	0.7898	0.051914	0.348715
665	C	0.754003	0.031849	0.345649
666	H	0.834279	0.048745	0.021596
667	C	0.738198	0.496166	0.346447
668	N	0.814551	0.485815	0.024327
669	O	0.812306	0.467763	0.990432
670	O	0.808638	0.468691	0.060467
671	O	0.738109	0.062468	0.305064
672	N	0.74239	0.444859	0.017454
673	N	0.804355	0.086305	0.34809
674	C	0.003958	0.28134	0.019098
675	C	0.98704	0.245677	0.348712
676	C	0.007106	0.229945	0.345649
677	H	0.99021	0.293327	0.021593
678	N	0.993605	0.194637	0.341212
679	O	0.975551	0.178826	0.375103
680	O	0.976486	0.183432	0.305067
681	N	0.952649	0.225842	0.34809
682	H	0.749709	0.391055	0.349819
683	C	0.740155	0.329036	0.349595
684	H	0.76489	0.347852	0.348798
685	C	0.831816	0.19266	0.348942
686	C	0.822226	0.157908	0.348925
687	C	0.846295	0.146946	0.348942
688	C	0.881048	0.172108	0.348925
689	C	0.892008	0.20714	0.348939
690	C	0.866848	0.21673	0.348925
691	H	0.898845	0.164718	0.349056
692	H	0.874237	0.241918	0.349056
693	H	0.797037	0.140111	0.349056
694	C	0.836828	0.112255	0.349275
695	C	0.9267	0.232364	0.349279
696	C	0.80659	0.202127	0.349279
697	H	0.781856	0.183313	0.350073
698	H	0.932621	0.257099	0.350073
699	H	0.855642	0.106334	0.350076
700	C	0.753468	0.28201	0.350162
701	C	0.737736	0.246211	0.353232
702	C	0.757616	0.230408	0.352431
703	C	0.793277	0.249155	0.682045
704	C	0.809011	0.284953	0.678983
705	H	0.74563	0.204675	0.354926
706	C	0.78913	0.300755	0.67978
707	H	0.801116	0.32649	0.677278
708	N	0.84432	0.306762	0.674546
709	O	0.860129	0.304517	0.708433
710	O	0.855522	0.300846	0.6384
711	N	0.813113	0.2346	0.681423
712	C	0.756945	0.479249	0.350162
713	C	0.792743	0.499316	0.353232
714	C	0.808547	0.034998	0.352434
715	C	0.7898	0.051914	0.682045
716	C	0.754003	0.031849	0.678983
717	H	0.834279	0.048745	0.35493
718	C	0.738198	0.496166	0.67978
719	N	0.814551	0.485815	0.357659
720	O	0.812306	0.467763	0.323765
721	O	0.808638	0.468691	0.393801
722	O	0.738109	0.062468	0.638396
723	N	0.74239	0.444859	0.350788
724	N	0.804355	0.086305	0.68142
725	C	0.003958	0.28134	0.352431
726	C	0.98704	0.245677	0.682045
727	C	0.007106	0.229945	0.678983
728	H	0.99021	0.293327	0.354926
729	N	0.993605	0.194637	0.674546
730	O	0.975551	0.178826	0.708433
731	O	0.976486	0.183432	0.6384
732	N	0.952649	0.225842	0.68142
733	H	0.749709	0.391055	0.683152
734	C	0.740155	0.329036	0.682929
735	H	0.76489	0.347852	0.682131
736	C	0.831816	0.19266	0.682276
737	C	0.822226	0.157908	0.682255
738	C	0.846295	0.146946	0.682276
739	C	0.881048	0.172108	0.682259
740	C	0.892008	0.20714	0.682272
741	C	0.866848	0.21673	0.682259
742	H	0.898845	0.164718	0.682389
743	H	0.874237	0.241918	0.682386
744	H	0.797037	0.140111	0.682389
745	C	0.836828	0.112255	0.682609
746	C	0.9267	0.232364	0.682609
747	C	0.80659	0.202127	0.682613
748	H	0.781856	0.183313	0.683407
749	H	0.932621	0.257099	0.683407
750	H	0.855642	0.106334	0.68341
751	C	0.753468	0.28201	0.683496
752	C	0.737736	0.246211	0.686562
753	C	0.757616	0.230408	0.685765
754	C	0.793277	0.249155	0.015379
755	C	0.809011	0.284953	0.012317
756	H	0.74563	0.204675	0.68826
757	C	0.78913	0.300755	0.013114
758	H	0.801116	0.32649	0.010612
759	N	0.84432	0.306762	0.007879
760	O	0.860129	0.304517	0.041769
761	O	0.855522	0.300846	0.971734
762	N	0.813113	0.2346	0.014754
763	C	0.756945	0.479249	0.683496
764	C	0.792743	0.499316	0.686565
765	C	0.808547	0.034998	0.685765
766	C	0.7898	0.051914	0.015379
767	C	0.754003	0.031849	0.012313
768	H	0.834279	0.048745	0.68826
769	C	0.738198	0.496166	0.013114
770	N	0.814551	0.485815	0.690993
771	O	0.812306	0.467763	0.657098
772	O	0.808638	0.468691	0.727135
773	O	0.738109	0.062468	0.97173
774	N	0.74239	0.444859	0.684122
775	N	0.804355	0.086305	0.014754
776	C	0.003958	0.28134	0.685765
777	C	0.98704	0.245677	0.015379
778	C	0.007106	0.229945	0.012317
779	H	0.99021	0.293327	0.68826
780	N	0.993605	0.194637	0.007879
781	O	0.975551	0.178826	0.041769
782	O	0.976486	0.183432	0.971734
783	N	0.952649	0.225842	0.014754
784	H	0.749708	0.891054	0.016486
785	C	0.740156	0.829038	0.016262
786	H	0.764889	0.84785	0.015465
787	C	0.831813	0.692659	0.015609
788	C	0.822224	0.657908	0.01559
789	C	0.846295	0.646945	0.015609
790	C	0.881046	0.672109	0.015592
791	C	0.892009	0.707141	0.015607
792	C	0.866846	0.716731	0.015592
793	H	0.898844	0.664719	0.015722
794	H	0.874237	0.741918	0.015721
795	H	0.797037	0.640111	0.015722
796	C	0.836828	0.612255	0.015944
797	C	0.926699	0.732363	0.015944
798	C	0.80659	0.702128	0.015945
799	H	0.781855	0.683312	0.016741
800	H	0.932622	0.7571	0.016741
801	H	0.855642	0.606333	0.016745
802	C	0.753468	0.782009	0.01683
803	C	0.737734	0.746211	0.019897
804	C	0.757614	0.730409	0.019099
805	C	0.793278	0.749156	0.348715
806	C	0.809009	0.784954	0.345649
807	H	0.745628	0.704676	0.021594
808	C	0.789131	0.800756	0.346447
809	H	0.801115	0.826489	0.343948
810	N	0.844317	0.806761	0.341212
811	O	0.860129	0.804516	0.375103
812	O	0.855523	0.800847	0.305067
813	N	0.813114	0.734601	0.34809
814	C	0.756945	0.979251	0.016831
815	C	0.792742	0.999315	0.019898
816	C	0.808545	0.534998	0.0191
817	C	0.7898	0.551915	0.348715
818	C	0.754002	0.531848	0.345649
819	H	0.83428	0.548747	0.021596
820	C	0.738198	0.996167	0.346447
821	N	0.81455	0.985814	0.024327
822	O	0.812306	0.967765	0.990432
823	O	0.808639	0.968692	0.060467
824	O	0.738109	0.562468	0.305064
825	N	0.742391	0.944861	0.017454
826	N	0.804354	0.586304	0.34809
827	C	0.003955	0.781339	0.019098
828	C	0.98704	0.745677	0.348712
829	C	0.007105	0.729944	0.345649
830	H	0.99021	0.793325	0.021593
831	N	0.993605	0.694636	0.341212
832	O	0.97555	0.678827	0.375103
833	O	0.976485	0.683431	0.305067
834	N	0.95265	0.725843	0.34809
835	H	0.749708	0.891054	0.349819
836	C	0.740156	0.829038	0.349595
837	H	0.764889	0.84785	0.348798
838	C	0.831813	0.692659	0.348942
839	C	0.822224	0.657908	0.348925
840	C	0.846295	0.646945	0.348942
841	C	0.881046	0.672109	0.348925
842	C	0.892009	0.707141	0.348939
843	C	0.866846	0.716731	0.348925
844	H	0.898844	0.664719	0.349056
845	H	0.874237	0.741918	0.349056
846	H	0.797037	0.640111	0.349056
847	C	0.836828	0.612255	0.349275
848	C	0.926699	0.732363	0.349279
849	C	0.80659	0.702128	0.349279
850	H	0.781855	0.683312	0.350073
851	H	0.932622	0.7571	0.350073
852	H	0.855642	0.606333	0.350076
853	C	0.753468	0.782009	0.350162
854	C	0.737734	0.746211	0.353232
855	C	0.757614	0.730409	0.352431
856	C	0.793278	0.749156	0.682045
857	C	0.809009	0.784954	0.678983
858	H	0.745628	0.704676	0.354926
859	C	0.789131	0.800756	0.67978
860	H	0.801115	0.826489	0.677278
861	N	0.844317	0.806761	0.674546
862	O	0.860129	0.804516	0.708433
863	O	0.855523	0.800847	0.6384
864	N	0.813114	0.734601	0.681423
865	C	0.756945	0.979251	0.350162
866	C	0.792742	0.999315	0.353232
867	C	0.808545	0.534998	0.352434
868	C	0.7898	0.551915	0.682045
869	C	0.754002	0.531848	0.678983
870	H	0.83428	0.548747	0.35493
871	C	0.738198	0.996167	0.67978
872	N	0.81455	0.985814	0.357659
873	O	0.812306	0.967765	0.323765
874	O	0.808639	0.968692	0.393801
875	O	0.738109	0.562468	0.638396
876	N	0.742391	0.944861	0.350788
877	N	0.804354	0.586304	0.68142
878	C	0.003955	0.781339	0.352431
879	C	0.98704	0.745677	0.682045
880	C	0.007105	0.729944	0.678983
881	H	0.99021	0.793325	0.354926
882	N	0.993605	0.694636	0.674546
883	O	0.97555	0.678827	0.708433
884	O	0.976485	0.683431	0.6384
885	N	0.95265	0.725843	0.68142
886	H	0.749708	0.891054	0.683152
887	C	0.740156	0.829038	0.682929
888	H	0.764889	0.84785	0.682131
889	C	0.831813	0.692659	0.682276
890	C	0.822224	0.657908	0.682255
891	C	0.846295	0.646945	0.682276
892	C	0.881046	0.672109	0.682259
893	C	0.892009	0.707141	0.682272
894	C	0.866846	0.716731	0.682259
895	H	0.898844	0.664719	0.682389
896	H	0.874237	0.741918	0.682386
897	H	0.797037	0.640111	0.682389
898	C	0.836828	0.612255	0.682609
899	C	0.926699	0.732363	0.682609
900	C	0.80659	0.702128	0.682613
901	H	0.781855	0.683312	0.683407
902	H	0.932622	0.7571	0.683407
903	H	0.855642	0.606333	0.68341
904	C	0.753468	0.782009	0.683496
905	C	0.737734	0.746211	0.686562
906	C	0.757614	0.730409	0.685765
907	C	0.793278	0.749156	0.015379
908	C	0.809009	0.784954	0.012317
909	H	0.745628	0.704676	0.68826
910	C	0.789131	0.800756	0.013114
911	H	0.801115	0.826489	0.010612
912	N	0.844317	0.806761	0.007879
913	O	0.860129	0.804516	0.041769
914	O	0.855523	0.800847	0.971734
915	N	0.813114	0.734601	0.014754
916	C	0.756945	0.979251	0.683496
917	C	0.792742	0.999315	0.686565
918	C	0.808545	0.534998	0.685765
919	C	0.7898	0.551915	0.015379
920	C	0.754002	0.531848	0.012313
921	H	0.83428	0.548747	0.68826
922	C	0.738198	0.996167	0.013114
923	N	0.81455	0.985814	0.690993
924	O	0.812306	0.967765	0.657098
925	O	0.808639	0.968692	0.727135
926	O	0.738109	0.562468	0.97173
927	N	0.742391	0.944861	0.684122
928	N	0.804354	0.586304	0.014754
929	C	0.003955	0.781339	0.685765
930	C	0.98704	0.745677	0.015379
931	C	0.007105	0.729944	0.012317
932	H	0.99021	0.793325	0.68826
933	N	0.993605	0.694636	0.007879
934	O	0.97555	0.678827	0.041769
935	O	0.976485	0.683431	0.971734
936	N	0.95265	0.725843	0.014754
