data_C864H504O144_2018-02-15_10:43:33
#******************************************
#
# CIF file created by Zeo++
# Zeo++ is an open source package to
# analyze microporous materials
#
#*******************************************

_cell_length_a		46.7801   
_cell_length_b		46.78   
_cell_length_c		29.593   
_cell_angle_alpha		90   
_cell_angle_beta		90   
_cell_angle_gamma		120   

_symmetry_space_group_name_H-M		'P1'
_symmetry_Int_Tables_number		1
_symmetry_cell_setting		Monoclinic

loop_
_symmetry_equiv_pos_as_xyz
'+x,+y,+z'

loop_
_atom_site_label
_atom_site_type_symbol
_atom_site_fract_x
_atom_site_fract_y
_atom_site_fract_z
1	C	0.028233	0.265813	0.006941
2	C	0.047443	0.301209	0.340043
3	C	0.082382	0.319087	0.340141
4	C	0.099368	0.301374	0.006846
5	C	0.082377	0.266677	0.006973
6	C	0.047439	0.249623	0.007156
7	H	0.036455	0.315249	0.339739
8	H	0.124731	0.314054	0.006815
9	H	0.036449	0.224595	0.007522
10	C	0.147507	0.25078	0.047465
11	C	0.11719	0.250492	0.048183
12	C	0.101567	0.250958	0.007306
13	C	0.116916	0.250627	0.29958
14	C	0.14698	0.250408	0.298897
15	C	0.163163	0.250983	0.339746
16	H	0.108094	0.25416	0.269644
17	O	0.106709	0.255517	0.088808
18	H	0.159907	0.254384	0.077377
19	O	0.162444	0.255246	0.258279
20	H	0.08665	0.234691	0.096441
21	H	0.161309	0.234256	0.250603
22	C	0.116946	0.369642	0.047556
23	C	0.146972	0.399961	0.048334
24	C	0.16318	0.415637	0.007539
25	C	0.147544	0.40025	0.299787
26	C	0.117266	0.370182	0.299005
27	C	0.101574	0.353988	0.339803
28	H	0.15994	0.409074	0.269879
29	O	0.162404	0.410427	0.089004
30	H	0.1081	0.357238	0.077455
31	O	0.106727	0.354731	0.258362
32	H	0.161626	0.430485	0.09661
33	H	0.08687	0.355841	0.250605
34	C	0.028233	0.265813	0.340273
35	C	0.047443	0.301209	0.673379
36	C	0.082382	0.319087	0.673477
37	C	0.099368	0.301374	0.340178
38	C	0.082377	0.266677	0.340307
39	C	0.047439	0.249623	0.340489
40	H	0.036455	0.315249	0.673074
41	H	0.124731	0.314054	0.340151
42	H	0.036449	0.224595	0.340854
43	C	0.147507	0.25078	0.380799
44	C	0.11719	0.250492	0.381516
45	C	0.101567	0.250958	0.340638
46	C	0.116916	0.250627	0.632913
47	C	0.14698	0.250408	0.63223
48	C	0.163163	0.250983	0.673078
49	H	0.108094	0.25416	0.602977
50	O	0.106709	0.255517	0.42214
51	H	0.159907	0.254384	0.410712
52	O	0.162444	0.255246	0.591613
53	H	0.08665	0.234691	0.429774
54	H	0.161309	0.234256	0.583939
55	C	0.116946	0.369642	0.380891
56	C	0.146972	0.399961	0.381668
57	C	0.16318	0.415637	0.340874
58	C	0.147544	0.40025	0.633119
59	C	0.117266	0.370182	0.632338
60	C	0.101574	0.353988	0.673135
61	H	0.15994	0.409074	0.603213
62	O	0.162404	0.410427	0.42234
63	H	0.1081	0.357238	0.41079
64	O	0.106727	0.354731	0.591697
65	H	0.161626	0.430485	0.429943
66	H	0.08687	0.355841	0.583939
67	C	0.028233	0.265813	0.673608
68	C	0.047443	0.301209	0.006711
69	C	0.082382	0.319087	0.006809
70	C	0.099368	0.301374	0.67351
71	C	0.082377	0.266677	0.673639
72	C	0.047439	0.249623	0.673825
73	H	0.036455	0.315249	0.006407
74	H	0.124731	0.314054	0.673483
75	H	0.036449	0.224595	0.67419
76	C	0.147507	0.25078	0.714131
77	C	0.11719	0.250492	0.714851
78	C	0.101567	0.250958	0.673973
79	C	0.116916	0.250627	0.966245
80	C	0.14698	0.250408	0.965562
81	C	0.163163	0.250983	0.00641
82	H	0.108094	0.25416	0.936312
83	O	0.106709	0.255517	0.755476
84	H	0.159907	0.254384	0.744044
85	O	0.162444	0.255246	0.924945
86	H	0.08665	0.234691	0.763109
87	H	0.161309	0.234256	0.917271
88	C	0.116946	0.369642	0.714223
89	C	0.146972	0.399961	0.715
90	C	0.16318	0.415637	0.674206
91	C	0.147544	0.40025	0.966455
92	C	0.117266	0.370182	0.965671
93	C	0.101574	0.353988	0.006471
94	H	0.15994	0.409074	0.936545
95	O	0.162404	0.410427	0.755672
96	H	0.1081	0.357238	0.744122
97	O	0.106727	0.354731	0.925029
98	H	0.161626	0.430485	0.763278
99	H	0.08687	0.355841	0.917271
100	C	0.028234	0.765814	0.006941
101	C	0.047442	0.801208	0.340043
102	C	0.082382	0.819086	0.340141
103	C	0.099369	0.801375	0.006846
104	C	0.082377	0.766678	0.006973
105	C	0.047438	0.749621	0.007156
106	H	0.036456	0.81525	0.339739
107	H	0.124732	0.814055	0.006815
108	H	0.036449	0.724595	0.007522
109	C	0.147507	0.750781	0.047465
110	C	0.117191	0.750493	0.048183
111	C	0.101566	0.750957	0.007306
112	C	0.116916	0.750626	0.29958
113	C	0.14698	0.750409	0.298897
114	C	0.163162	0.750981	0.339746
115	H	0.108092	0.754158	0.269644
116	O	0.106708	0.755516	0.088808
117	H	0.159907	0.754385	0.077377
118	O	0.162443	0.755247	0.258279
119	H	0.08665	0.73469	0.096441
120	H	0.161309	0.734256	0.250603
121	C	0.116946	0.869643	0.047556
122	C	0.146972	0.899959	0.048334
123	C	0.163179	0.915636	0.007539
124	C	0.147544	0.900248	0.299787
125	C	0.117265	0.870183	0.299005
126	C	0.101573	0.853988	0.339803
127	H	0.159939	0.909075	0.269879
128	O	0.162405	0.910428	0.089004
129	H	0.1081	0.857239	0.077455
130	O	0.106726	0.854731	0.258362
131	H	0.161628	0.930485	0.09661
132	H	0.086869	0.855842	0.250605
133	C	0.028234	0.765814	0.340273
134	C	0.047442	0.801208	0.673379
135	C	0.082382	0.819086	0.673477
136	C	0.099369	0.801375	0.340178
137	C	0.082377	0.766678	0.340307
138	C	0.047438	0.749621	0.340489
139	H	0.036456	0.81525	0.673074
140	H	0.124732	0.814055	0.340151
141	H	0.036449	0.724595	0.340854
142	C	0.147507	0.750781	0.380799
143	C	0.117191	0.750493	0.381516
144	C	0.101566	0.750957	0.340638
145	C	0.116916	0.750626	0.632913
146	C	0.14698	0.750409	0.63223
147	C	0.163162	0.750981	0.673078
148	H	0.108092	0.754158	0.602977
149	O	0.106708	0.755516	0.42214
150	H	0.159907	0.754385	0.410712
151	O	0.162443	0.755247	0.591613
152	H	0.08665	0.73469	0.429774
153	H	0.161309	0.734256	0.583939
154	C	0.116946	0.869643	0.380891
155	C	0.146972	0.899959	0.381668
156	C	0.163179	0.915636	0.340874
157	C	0.147544	0.900248	0.633119
158	C	0.117265	0.870183	0.632338
159	C	0.101573	0.853988	0.673135
160	H	0.159939	0.909075	0.603213
161	O	0.162405	0.910428	0.42234
162	H	0.1081	0.857239	0.41079
163	O	0.106726	0.854731	0.591697
164	H	0.161628	0.930485	0.429943
165	H	0.086869	0.855842	0.583939
166	C	0.028234	0.765814	0.673608
167	C	0.047442	0.801208	0.006711
168	C	0.082382	0.819086	0.006809
169	C	0.099369	0.801375	0.67351
170	C	0.082377	0.766678	0.673639
171	C	0.047438	0.749621	0.673825
172	H	0.036456	0.81525	0.006407
173	H	0.124732	0.814055	0.673483
174	H	0.036449	0.724595	0.67419
175	C	0.147507	0.750781	0.714131
176	C	0.117191	0.750493	0.714851
177	C	0.101566	0.750957	0.673973
178	C	0.116916	0.750626	0.966245
179	C	0.14698	0.750409	0.965562
180	C	0.163162	0.750981	0.00641
181	H	0.108092	0.754158	0.936312
182	O	0.106708	0.755516	0.755476
183	H	0.159907	0.754385	0.744044
184	O	0.162443	0.755247	0.924945
185	H	0.08665	0.73469	0.763109
186	H	0.161309	0.734256	0.917271
187	C	0.116946	0.869643	0.714223
188	C	0.146972	0.899959	0.715
189	C	0.163179	0.915636	0.674206
190	C	0.147544	0.900248	0.966455
191	C	0.117265	0.870183	0.965671
192	C	0.101573	0.853988	0.006471
193	H	0.159939	0.909075	0.936545
194	O	0.162405	0.910428	0.755672
195	H	0.1081	0.857239	0.744122
196	O	0.106726	0.854731	0.925029
197	H	0.161628	0.930485	0.763278
198	H	0.086869	0.855842	0.917271
199	C	0.253081	0.212511	0.007188
200	H	0.228054	0.19847	0.007536
201	C	0.251339	0.265815	0.007014
202	C	0.215943	0.249628	0.340067
203	C	0.198064	0.266689	0.340104
204	C	0.215776	0.301384	0.006738
205	C	0.250473	0.319085	0.006922
206	H	0.201902	0.224599	0.339763
207	H	0.203099	0.314072	0.006657
208	C	0.253105	0.044027	0.340114
209	H	0.228077	0.033042	0.339915
210	C	0.251358	0.488975	0.007159
211	C	0.250486	0.434836	0.340354
212	C	0.215791	0.417844	0.007156
213	C	0.198081	0.434831	0.007226
214	C	0.215962	0.469771	0.00737
215	H	0.203111	0.392479	0.007162
216	H	0.201923	0.48076	0.007687
217	C	0.266186	0.353975	0.007235
218	C	0.266194	0.415657	0.340006
219	H	0.262549	0.35731	0.269681
220	O	0.262144	0.354701	0.088726
221	H	0.263206	0.409012	0.077591
222	O	0.261429	0.410466	0.258518
223	C	0.254083	0.113529	0.047254
224	C	0.253787	0.143554	0.048006
225	C	0.254411	0.159728	0.007146
226	C	0.254226	0.144134	0.299413
227	C	0.254031	0.113868	0.298726
228	C	0.254472	0.098149	0.339553
229	H	0.257851	0.156542	0.269504
230	O	0.258681	0.158981	0.088671
231	H	0.257596	0.104683	0.077182
232	O	0.258975	0.103322	0.258106
233	H	0.237824	0.158182	0.096197
234	H	0.238057	0.083387	0.250409
235	C	0.253081	0.212511	0.340523
236	H	0.228054	0.19847	0.340871
237	C	0.251339	0.265815	0.340347
238	C	0.215943	0.249628	0.673402
239	C	0.198064	0.266689	0.673436
240	C	0.215776	0.301384	0.34007
241	C	0.250473	0.319085	0.340256
242	H	0.201902	0.224599	0.673095
243	H	0.203099	0.314072	0.339989
244	C	0.253105	0.044027	0.673446
245	H	0.228077	0.033042	0.67325
246	C	0.251358	0.488975	0.340493
247	C	0.250486	0.434836	0.673686
248	C	0.215791	0.417844	0.340489
249	C	0.198081	0.434831	0.34056
250	C	0.215962	0.469771	0.340705
251	H	0.203111	0.392479	0.340496
252	H	0.201923	0.48076	0.34102
253	C	0.266186	0.353975	0.34057
254	C	0.266194	0.415657	0.673338
255	H	0.262549	0.35731	0.603014
256	O	0.262144	0.354701	0.422059
257	H	0.263206	0.409012	0.410925
258	O	0.261429	0.410466	0.591853
259	C	0.254083	0.113529	0.380586
260	C	0.253787	0.143554	0.38134
261	C	0.254411	0.159728	0.340479
262	C	0.254226	0.144134	0.632747
263	C	0.254031	0.113868	0.632058
264	C	0.254472	0.098149	0.672885
265	H	0.257851	0.156542	0.602838
266	O	0.258681	0.158981	0.422005
267	H	0.257596	0.104683	0.410516
268	O	0.258975	0.103322	0.59144
269	H	0.237824	0.158182	0.42953
270	H	0.238057	0.083387	0.583743
271	C	0.253081	0.212511	0.673855
272	H	0.228054	0.19847	0.674203
273	C	0.251339	0.265815	0.673679
274	C	0.215943	0.249628	0.006734
275	C	0.198064	0.266689	0.006771
276	C	0.215776	0.301384	0.673406
277	C	0.250473	0.319085	0.673588
278	H	0.201902	0.224599	0.00643
279	H	0.203099	0.314072	0.673321
280	C	0.253105	0.044027	0.006782
281	H	0.228077	0.033042	0.006582
282	C	0.251358	0.488975	0.673828
283	C	0.250486	0.434836	0.007021
284	C	0.215791	0.417844	0.673825
285	C	0.198081	0.434831	0.673892
286	C	0.215962	0.469771	0.674038
287	H	0.203111	0.392479	0.673828
288	H	0.201923	0.48076	0.674355
289	C	0.266186	0.353975	0.673902
290	C	0.266194	0.415657	0.00667
291	H	0.262549	0.35731	0.936346
292	O	0.262144	0.354701	0.755395
293	H	0.263206	0.409012	0.744257
294	O	0.261429	0.410466	0.925185
295	C	0.254083	0.113529	0.713922
296	C	0.253787	0.143554	0.714672
297	C	0.254411	0.159728	0.673815
298	C	0.254226	0.144134	0.966079
299	C	0.254031	0.113868	0.965393
300	C	0.254472	0.098149	0.006221
301	H	0.257851	0.156542	0.93617
302	O	0.258681	0.158981	0.755337
303	H	0.257596	0.104683	0.743848
304	O	0.258975	0.103322	0.924772
305	H	0.237824	0.158182	0.762863
306	H	0.238057	0.083387	0.917075
307	C	0.253081	0.712509	0.007188
308	H	0.228053	0.698469	0.007537
309	C	0.251339	0.765816	0.007014
310	C	0.215942	0.749626	0.340067
311	C	0.198064	0.766688	0.340104
312	C	0.215776	0.801385	0.006738
313	C	0.250473	0.819086	0.006922
314	H	0.201902	0.7246	0.339763
315	H	0.203098	0.81407	0.006657
316	C	0.253106	0.544027	0.340114
317	H	0.228077	0.533042	0.339915
318	C	0.251358	0.988976	0.007159
319	C	0.250486	0.934837	0.340354
320	C	0.215789	0.917843	0.007156
321	C	0.198079	0.93483	0.007226
322	C	0.215962	0.969769	0.00737
323	H	0.20311	0.89248	0.007162
324	H	0.201922	0.980759	0.007687
325	C	0.266184	0.853974	0.007235
326	C	0.266193	0.915656	0.340006
327	H	0.262549	0.857311	0.26968
328	O	0.262143	0.854699	0.088726
329	H	0.263204	0.909011	0.077591
330	O	0.261429	0.910467	0.258518
331	C	0.254083	0.613528	0.047254
332	C	0.253787	0.643553	0.048007
333	C	0.254411	0.659729	0.007146
334	C	0.254225	0.644133	0.299413
335	C	0.25403	0.613866	0.298726
336	C	0.254473	0.59815	0.339553
337	H	0.25785	0.656542	0.269504
338	O	0.25868	0.658981	0.088671
339	H	0.257597	0.604684	0.077182
340	O	0.258975	0.603322	0.258106
341	H	0.237823	0.658181	0.096197
342	H	0.238057	0.583387	0.250409
343	C	0.253081	0.712509	0.340523
344	H	0.228053	0.698469	0.340871
345	C	0.251339	0.765816	0.340347
346	C	0.215942	0.749626	0.673402
347	C	0.198064	0.766688	0.673436
348	C	0.215776	0.801385	0.34007
349	C	0.250473	0.819086	0.340256
350	H	0.201902	0.7246	0.673095
351	H	0.203098	0.81407	0.339989
352	C	0.253106	0.544027	0.673446
353	H	0.228077	0.533042	0.67325
354	C	0.251358	0.988976	0.340493
355	C	0.250486	0.934837	0.673686
356	C	0.215789	0.917843	0.340489
357	C	0.198079	0.93483	0.34056
358	C	0.215962	0.969769	0.340705
359	H	0.20311	0.89248	0.340496
360	H	0.201922	0.980759	0.34102
361	C	0.266184	0.853974	0.34057
362	C	0.266193	0.915656	0.673338
363	H	0.262549	0.857311	0.603014
364	O	0.262143	0.854699	0.422059
365	H	0.263204	0.909011	0.410925
366	O	0.261429	0.910467	0.591853
367	C	0.254083	0.613528	0.380586
368	C	0.253787	0.643553	0.38134
369	C	0.254411	0.659729	0.340479
370	C	0.254225	0.644133	0.632747
371	C	0.25403	0.613866	0.632058
372	C	0.254473	0.59815	0.672885
373	H	0.25785	0.656542	0.602838
374	O	0.25868	0.658981	0.422005
375	H	0.257597	0.604684	0.410516
376	O	0.258975	0.603322	0.59144
377	H	0.237823	0.658181	0.42953
378	H	0.238057	0.583387	0.583743
379	C	0.253081	0.712509	0.673855
380	H	0.228053	0.698469	0.674203
381	C	0.251339	0.765816	0.673679
382	C	0.215942	0.749626	0.006734
383	C	0.198064	0.766688	0.006771
384	C	0.215776	0.801385	0.673406
385	C	0.250473	0.819086	0.673588
386	H	0.201902	0.7246	0.00643
387	H	0.203098	0.81407	0.673321
388	C	0.253106	0.544027	0.006782
389	H	0.228077	0.533042	0.006582
390	C	0.251358	0.988976	0.673828
391	C	0.250486	0.934837	0.007021
392	C	0.215789	0.917843	0.673825
393	C	0.198079	0.93483	0.673892
394	C	0.215962	0.969769	0.674038
395	H	0.20311	0.89248	0.673828
396	H	0.201922	0.980759	0.674355
397	C	0.266184	0.853974	0.673902
398	C	0.266193	0.915656	0.00667
399	H	0.262549	0.857311	0.936346
400	O	0.262143	0.854699	0.755395
401	H	0.263204	0.909011	0.744257
402	O	0.261429	0.910467	0.925185
403	C	0.254083	0.613528	0.713922
404	C	0.253787	0.643553	0.714672
405	C	0.254411	0.659729	0.673815
406	C	0.254225	0.644133	0.966079
407	C	0.25403	0.613866	0.965393
408	C	0.254473	0.59815	0.006221
409	H	0.25785	0.656542	0.93617
410	O	0.25868	0.658981	0.755337
411	H	0.257597	0.604684	0.743848
412	O	0.258975	0.603322	0.924772
413	H	0.237823	0.658181	0.762863
414	H	0.238057	0.583387	0.917078
415	C	0.266737	0.400269	0.04759
416	C	0.266374	0.369726	0.299621
417	C	0.266561	0.399993	0.299085
418	C	0.266737	0.400269	0.380924
419	C	0.266374	0.369726	0.632954
420	C	0.266561	0.399993	0.63242
421	C	0.266737	0.400269	0.714256
422	C	0.266374	0.369726	0.966289
423	C	0.266561	0.399993	0.965752
424	C	0.266737	0.90027	0.04759
425	C	0.266373	0.869724	0.299621
426	C	0.26656	0.899991	0.299085
427	C	0.266737	0.90027	0.380924
428	C	0.266373	0.869724	0.632954
429	C	0.26656	0.899991	0.63242
430	C	0.266737	0.90027	0.714256
431	C	0.266373	0.869724	0.966289
432	C	0.26656	0.899991	0.965752
433	C	0.26927	0.247902	0.007014
434	C	0.270141	0.194635	0.006923
435	C	0.30484	0.21234	0.006778
436	C	0.322549	0.247038	0.340128
437	C	0.304667	0.264095	0.340124
438	H	0.318706	0.289122	0.339854
439	H	0.317519	0.199657	0.006707
440	C	0.267531	0.301209	0.007252
441	H	0.292558	0.315249	0.007664
442	C	0.26929	0.024819	0.007092
443	C	0.304688	0.044021	0.0073
444	C	0.322576	0.078958	0.006744
445	C	0.30487	0.09595	0.0064
446	C	0.270173	0.078962	0.339894
447	H	0.318726	0.033032	0.007823
448	H	0.317556	0.121313	0.006207
449	C	0.267548	0.469773	0.340249
450	H	0.292575	0.480758	0.339871
451	C	0.266912	0.370182	0.048134
452	H	0.283157	0.355859	0.09632
453	H	0.282227	0.430539	0.250821
454	C	0.26927	0.247902	0.340347
455	C	0.270141	0.194635	0.340256
456	C	0.30484	0.21234	0.340111
457	C	0.322549	0.247038	0.673463
458	C	0.304667	0.264095	0.673456
459	H	0.318706	0.289122	0.673189
460	H	0.317519	0.199657	0.34004
461	C	0.267531	0.301209	0.340587
462	H	0.292558	0.315249	0.340996
463	C	0.26929	0.024819	0.340425
464	C	0.304688	0.044021	0.340634
465	C	0.322576	0.078958	0.34008
466	C	0.30487	0.09595	0.339732
467	C	0.270173	0.078962	0.67323
468	H	0.318726	0.033032	0.341158
469	H	0.317556	0.121313	0.339543
470	C	0.267548	0.469773	0.673581
471	H	0.292575	0.480758	0.673206
472	C	0.266912	0.370182	0.381468
473	H	0.283157	0.355859	0.429652
474	H	0.282227	0.430539	0.584155
475	C	0.26927	0.247902	0.673679
476	C	0.270141	0.194635	0.673591
477	C	0.30484	0.21234	0.673443
478	C	0.322549	0.247038	0.006795
479	C	0.304667	0.264095	0.006792
480	H	0.318706	0.289122	0.006521
481	H	0.317519	0.199657	0.673375
482	C	0.267531	0.301209	0.673919
483	H	0.292558	0.315249	0.674332
484	C	0.26929	0.024819	0.67376
485	C	0.304688	0.044021	0.673967
486	C	0.322576	0.078958	0.673412
487	C	0.30487	0.09595	0.673068
488	C	0.270173	0.078962	0.006562
489	H	0.318726	0.033032	0.67449
490	H	0.317556	0.121313	0.672875
491	C	0.267548	0.469773	0.006915
492	H	0.292575	0.480758	0.006538
493	C	0.266912	0.370182	0.714801
494	H	0.283157	0.355859	0.762988
495	H	0.282227	0.430539	0.917487
496	C	0.26927	0.747903	0.007014
497	C	0.270141	0.694634	0.006923
498	C	0.304839	0.712339	0.006778
499	C	0.322548	0.747037	0.340128
500	C	0.304666	0.764093	0.340124
501	H	0.318706	0.789122	0.339854
502	H	0.317519	0.699657	0.006707
503	C	0.26753	0.801208	0.007252
504	H	0.292558	0.81525	0.007664
505	C	0.269291	0.52482	0.007092
506	C	0.304688	0.544022	0.0073
507	C	0.322574	0.578956	0.006744
508	C	0.30487	0.595949	0.0064
509	C	0.270173	0.578961	0.339894
510	H	0.318725	0.533033	0.007823
511	H	0.317556	0.621313	0.006207
512	C	0.267547	0.969772	0.340249
513	H	0.292575	0.980759	0.339871
514	C	0.266912	0.870183	0.048134
515	H	0.283157	0.85586	0.09632
516	H	0.282226	0.930537	0.250821
517	C	0.26927	0.747903	0.340347
518	C	0.270141	0.694634	0.340256
519	C	0.304839	0.712339	0.340111
520	C	0.322548	0.747037	0.673463
521	C	0.304666	0.764093	0.673456
522	H	0.318706	0.789122	0.673189
523	H	0.317519	0.699657	0.34004
524	C	0.26753	0.801208	0.340587
525	H	0.292558	0.81525	0.340996
526	C	0.269291	0.52482	0.340425
527	C	0.304688	0.544022	0.340634
528	C	0.322574	0.578956	0.34008
529	C	0.30487	0.595949	0.339732
530	C	0.270173	0.578961	0.67323
531	H	0.318725	0.533033	0.341158
532	H	0.317556	0.621313	0.339543
533	C	0.267547	0.969772	0.673581
534	H	0.292575	0.980759	0.673206
535	C	0.266912	0.870183	0.381468
536	H	0.283157	0.85586	0.429652
537	H	0.282226	0.930537	0.584155
538	C	0.26927	0.747903	0.673679
539	C	0.270141	0.694634	0.673591
540	C	0.304839	0.712339	0.673443
541	C	0.322548	0.747037	0.006795
542	C	0.304666	0.764093	0.006792
543	H	0.318706	0.789122	0.006521
544	H	0.317519	0.699657	0.673375
545	C	0.26753	0.801208	0.673919
546	H	0.292558	0.81525	0.674332
547	C	0.269291	0.52482	0.67376
548	C	0.304688	0.544022	0.673967
549	C	0.322574	0.578956	0.673412
550	C	0.30487	0.595949	0.673068
551	C	0.270173	0.578961	0.006562
552	H	0.318725	0.533033	0.67449
553	H	0.317556	0.621313	0.672875
554	C	0.267547	0.969772	0.006916
555	H	0.292575	0.980759	0.006538
556	C	0.266912	0.870183	0.714801
557	H	0.283157	0.85586	0.762988
558	H	0.282226	0.930537	0.917487
559	C	0.492386	0.24789	0.006979
560	C	0.473178	0.26408	0.007202
561	C	0.438239	0.247019	0.007197
562	C	0.42125	0.212322	0.007185
563	C	0.438241	0.194616	0.340307
564	C	0.473179	0.212495	0.340114
565	H	0.484167	0.289109	0.007461
566	H	0.484166	0.198455	0.339725
567	H	0.395887	0.199639	0.007242
568	C	0.373104	0.263088	0.047604
569	C	0.403343	0.263221	0.048299
570	C	0.419044	0.262715	0.007485
571	C	0.403688	0.263103	0.299759
572	C	0.373603	0.263283	0.299011
573	C	0.357458	0.262762	0.339854
574	H	0.412416	0.2594	0.26986
575	O	0.413879	0.258282	0.088931
576	H	0.360689	0.259439	0.077511
577	O	0.358131	0.258282	0.258362
578	H	0.433803	0.279206	0.096638
579	H	0.358932	0.279122	0.250718
580	C	0.403702	0.143746	0.047529
581	C	0.373625	0.113468	0.048026
582	C	0.357485	0.098145	0.007038
583	C	0.373136	0.113733	0.299404
584	C	0.403404	0.143814	0.298947
585	C	0.419043	0.159717	0.339952
586	H	0.360693	0.105188	0.269474
587	O	0.358123	0.10266	0.088588
588	H	0.412457	0.155985	0.077549
589	O	0.413883	0.1595	0.25843
590	H	0.359379	0.082852	0.096139
591	H	0.433992	0.158846	0.250727
592	C	0.492386	0.24789	0.340313
593	C	0.473178	0.26408	0.340536
594	C	0.438239	0.247019	0.34053
595	C	0.42125	0.212322	0.34052
596	C	0.438241	0.194616	0.673639
597	C	0.473179	0.212495	0.67345
598	H	0.484167	0.289109	0.340793
599	H	0.484166	0.198455	0.673058
600	H	0.395887	0.199639	0.340574
601	C	0.373104	0.263088	0.380938
602	C	0.403343	0.263221	0.381634
603	C	0.419044	0.262715	0.340817
604	C	0.403688	0.263103	0.633092
605	C	0.373603	0.263283	0.632345
606	C	0.357458	0.262762	0.673186
607	H	0.412416	0.2594	0.603193
608	O	0.413879	0.258282	0.422265
609	H	0.360689	0.259439	0.410844
610	O	0.358131	0.258282	0.591697
611	H	0.433803	0.279206	0.429973
612	H	0.358932	0.279122	0.58405
613	C	0.403702	0.143746	0.380864
614	C	0.373625	0.113468	0.38136
615	C	0.357485	0.098145	0.340371
616	C	0.373136	0.113733	0.632737
617	C	0.403404	0.143814	0.632281
618	C	0.419043	0.159717	0.673284
619	H	0.360693	0.105188	0.602808
620	O	0.358123	0.10266	0.421921
621	H	0.412457	0.155985	0.410881
622	O	0.413883	0.1595	0.591765
623	H	0.359379	0.082852	0.429473
624	H	0.433992	0.158846	0.58406
625	C	0.492386	0.24789	0.673646
626	C	0.473178	0.26408	0.673869
627	C	0.438239	0.247019	0.673865
628	C	0.42125	0.212322	0.673852
629	C	0.438241	0.194616	0.006973
630	C	0.473179	0.212495	0.006782
631	H	0.484167	0.289109	0.674129
632	H	0.484166	0.198455	0.006393
633	H	0.395887	0.199639	0.673909
634	C	0.373104	0.263088	0.71427
635	C	0.403343	0.263221	0.714966
636	C	0.419044	0.262715	0.674152
637	C	0.403688	0.263103	0.966428
638	C	0.373603	0.263283	0.965677
639	C	0.357458	0.262762	0.006521
640	H	0.412416	0.2594	0.936529
641	O	0.413879	0.258282	0.755597
642	H	0.360689	0.259439	0.744179
643	O	0.358131	0.258282	0.925029
644	H	0.433803	0.279206	0.763305
645	H	0.358932	0.279122	0.917386
646	C	0.403702	0.143746	0.714196
647	C	0.373625	0.113468	0.714692
648	C	0.357485	0.098145	0.673706
649	C	0.373136	0.113733	0.966073
650	C	0.403404	0.143814	0.965613
651	C	0.419043	0.159717	0.006619
652	H	0.360693	0.105188	0.93614
653	O	0.358123	0.10266	0.755256
654	H	0.412457	0.155985	0.744216
655	O	0.413883	0.1595	0.925097
656	H	0.359379	0.082852	0.762805
657	H	0.433992	0.158846	0.917392
658	C	0.492386	0.747891	0.006979
659	C	0.473178	0.764078	0.007202
660	C	0.43824	0.74702	0.007197
661	C	0.42125	0.712322	0.007185
662	C	0.43824	0.694616	0.340307
663	C	0.473178	0.712495	0.340114
664	H	0.484167	0.789108	0.007461
665	H	0.484166	0.698455	0.339725
666	H	0.395886	0.699639	0.007241
667	C	0.373103	0.763086	0.047604
668	C	0.403343	0.763219	0.048299
669	C	0.419043	0.762713	0.007485
670	C	0.403687	0.763103	0.299759
671	C	0.373602	0.763284	0.299011
672	C	0.357458	0.762763	0.339854
673	H	0.412417	0.759401	0.26986
674	O	0.413878	0.758283	0.088931
675	H	0.36069	0.75944	0.077511
676	O	0.35813	0.75828	0.258362
677	H	0.433803	0.779205	0.096638
678	H	0.35893	0.779121	0.250718
679	C	0.403702	0.643746	0.047529
680	C	0.373625	0.613469	0.048026
681	C	0.357485	0.598145	0.007038
682	C	0.373135	0.613733	0.299404
683	C	0.403403	0.643813	0.298947
684	C	0.419043	0.659716	0.339952
685	H	0.360692	0.605188	0.269474
686	O	0.358122	0.60266	0.088588
687	H	0.412456	0.655984	0.077549
688	O	0.413883	0.659499	0.25843
689	H	0.359378	0.582851	0.096139
690	H	0.433991	0.658845	0.250727
691	C	0.492386	0.747891	0.340313
692	C	0.473178	0.764078	0.340536
693	C	0.43824	0.74702	0.34053
694	C	0.42125	0.712322	0.34052
695	C	0.43824	0.694616	0.673639
696	C	0.473178	0.712495	0.67345
697	H	0.484167	0.789108	0.340793
698	H	0.484166	0.698455	0.673058
699	H	0.395886	0.699639	0.340574
700	C	0.373103	0.763086	0.380938
701	C	0.403343	0.763219	0.381634
702	C	0.419043	0.762713	0.340817
703	C	0.403687	0.763103	0.633092
704	C	0.373602	0.763284	0.632345
705	C	0.357458	0.762763	0.673186
706	H	0.412417	0.759401	0.603193
707	O	0.413878	0.758283	0.422265
708	H	0.36069	0.75944	0.410844
709	O	0.35813	0.75828	0.591697
710	H	0.433803	0.779205	0.42997
711	H	0.35893	0.779121	0.58405
712	C	0.403702	0.643746	0.380864
713	C	0.373625	0.613469	0.38136
714	C	0.357485	0.598145	0.340371
715	C	0.373135	0.613733	0.632737
716	C	0.403403	0.643813	0.632281
717	C	0.419043	0.659716	0.673284
718	H	0.360692	0.605188	0.602808
719	O	0.358122	0.60266	0.421921
720	H	0.412456	0.655984	0.410881
721	O	0.413883	0.659499	0.591765
722	H	0.359378	0.582851	0.429473
723	H	0.433991	0.658845	0.58406
724	C	0.492386	0.747891	0.673646
725	C	0.473178	0.764078	0.673869
726	C	0.43824	0.74702	0.673865
727	C	0.42125	0.712322	0.673852
728	C	0.43824	0.694616	0.006973
729	C	0.473178	0.712495	0.006782
730	H	0.484167	0.789108	0.674129
731	H	0.484166	0.698455	0.006393
732	H	0.395886	0.699639	0.673909
733	C	0.373103	0.763086	0.71427
734	C	0.403343	0.763219	0.714966
735	C	0.419043	0.762713	0.674152
736	C	0.403687	0.763103	0.966428
737	C	0.373602	0.763284	0.965677
738	C	0.357458	0.762763	0.006521
739	H	0.412417	0.759401	0.936529
740	O	0.413878	0.758283	0.755597
741	H	0.36069	0.75944	0.744179
742	O	0.35813	0.75828	0.925029
743	H	0.433803	0.779205	0.763305
744	H	0.35893	0.779121	0.917386
745	C	0.403702	0.643746	0.714196
746	C	0.373625	0.613469	0.714692
747	C	0.357485	0.598145	0.673706
748	C	0.373135	0.613733	0.966073
749	C	0.403403	0.643813	0.965613
750	C	0.419043	0.659716	0.006619
751	H	0.360692	0.605188	0.93614
752	O	0.358122	0.60266	0.755256
753	H	0.412456	0.655984	0.744216
754	O	0.413883	0.659499	0.925097
755	H	0.359378	0.582851	0.762805
756	H	0.433991	0.658845	0.917392
757	C	0.992385	0.24789	0.006979
758	C	0.973179	0.26408	0.007202
759	C	0.938238	0.247019	0.007197
760	C	0.921249	0.212322	0.007185
761	C	0.93824	0.194616	0.340307
762	C	0.973178	0.212495	0.340114
763	H	0.984168	0.289109	0.007461
764	H	0.984165	0.198455	0.339725
765	H	0.895886	0.199639	0.007242
766	C	0.528232	0.265813	0.006941
767	C	0.547442	0.301209	0.340043
768	C	0.582381	0.319087	0.340141
769	C	0.599367	0.301374	0.006846
770	C	0.582377	0.266677	0.006973
771	C	0.54744	0.249623	0.007156
772	H	0.536454	0.315249	0.339739
773	H	0.62473	0.314054	0.006815
774	H	0.53645	0.224595	0.007522
775	C	0.76927	0.247902	0.007014
776	C	0.753081	0.212511	0.007188
777	C	0.770142	0.194635	0.006923
778	C	0.804839	0.21234	0.006778
779	C	0.822549	0.247038	0.340128
780	C	0.804666	0.264095	0.340124
781	H	0.728053	0.19847	0.007536
782	H	0.818706	0.289122	0.339854
783	H	0.81752	0.199657	0.006707
784	C	0.751339	0.265815	0.007014
785	C	0.715943	0.249628	0.340067
786	C	0.698063	0.266689	0.340104
787	C	0.715776	0.301384	0.006738
788	C	0.750473	0.319085	0.006922
789	C	0.767531	0.301209	0.007252
790	H	0.701901	0.224599	0.339763
791	H	0.703099	0.314072	0.006657
792	H	0.792557	0.315249	0.007664
793	C	0.769291	0.024819	0.007092
794	C	0.804687	0.044021	0.0073
795	C	0.822575	0.078958	0.006744
796	C	0.804871	0.09595	0.0064
797	C	0.770174	0.078962	0.339894
798	C	0.753106	0.044027	0.340114
799	H	0.818725	0.033032	0.007823
800	H	0.728078	0.033042	0.339915
801	H	0.817555	0.121313	0.006207
802	C	0.751356	0.488975	0.007159
803	C	0.767549	0.469773	0.340249
804	C	0.750486	0.434836	0.340354
805	C	0.715791	0.417844	0.007156
806	C	0.698081	0.434831	0.007226
807	C	0.715961	0.469771	0.00737
808	H	0.792575	0.480758	0.339871
809	H	0.703111	0.392479	0.007162
810	H	0.701922	0.48076	0.007687
811	C	0.647507	0.25078	0.047465
812	C	0.61719	0.250492	0.048183
813	C	0.601566	0.250958	0.007306
814	C	0.616916	0.250627	0.29958
815	C	0.646979	0.250408	0.298897
816	C	0.663162	0.250983	0.339746
817	H	0.608094	0.25416	0.269644
818	O	0.60671	0.255517	0.088808
819	H	0.659908	0.254384	0.077377
820	O	0.662444	0.255246	0.258279
821	H	0.586649	0.234691	0.096441
822	H	0.661308	0.234256	0.250603
823	C	0.766736	0.400269	0.04759
824	C	0.766911	0.370182	0.048134
825	C	0.766184	0.353975	0.007235
826	C	0.766375	0.369726	0.299621
827	C	0.766562	0.399993	0.299085
828	C	0.766194	0.415657	0.340006
829	H	0.762548	0.35731	0.269681
830	O	0.762144	0.354701	0.088726
831	H	0.763205	0.409012	0.077591
832	O	0.761429	0.410466	0.258518
833	H	0.783156	0.355859	0.09632
834	H	0.782226	0.430539	0.250821
835	C	0.616944	0.369642	0.047556
836	C	0.646971	0.399961	0.048334
837	C	0.663179	0.415637	0.007539
838	C	0.647543	0.40025	0.299787
839	C	0.617266	0.370182	0.299005
840	C	0.601574	0.353988	0.339803
841	H	0.65994	0.409074	0.269879
842	O	0.662403	0.410427	0.089004
843	H	0.608098	0.357238	0.077455
844	O	0.606727	0.354731	0.258362
845	H	0.661626	0.430485	0.09661
846	H	0.58687	0.355841	0.250605
847	C	0.873102	0.263088	0.047604
848	C	0.903344	0.263221	0.048299
849	C	0.919043	0.262715	0.007485
850	C	0.903687	0.263103	0.299759
851	C	0.873602	0.263283	0.299011
852	C	0.857459	0.262762	0.339854
853	H	0.912417	0.2594	0.26986
854	O	0.913878	0.258282	0.088931
855	H	0.860691	0.259439	0.077511
856	O	0.85813	0.258282	0.258362
857	H	0.933804	0.279206	0.096638
858	H	0.858931	0.279122	0.250718
859	C	0.754082	0.113529	0.047254
860	C	0.753787	0.143554	0.048006
861	C	0.754411	0.159728	0.007146
862	C	0.754227	0.144134	0.299413
863	C	0.754031	0.113868	0.298726
864	C	0.754473	0.098149	0.339553
865	H	0.75785	0.156542	0.269504
866	O	0.758681	0.158981	0.088671
867	H	0.757597	0.104683	0.077182
868	O	0.758974	0.103322	0.258106
869	H	0.737824	0.158182	0.096197
870	H	0.738056	0.083387	0.250409
871	C	0.903701	0.143746	0.047529
872	C	0.873624	0.113468	0.048026
873	C	0.857484	0.098145	0.007038
874	C	0.873134	0.113733	0.299404
875	C	0.903403	0.143814	0.298947
876	C	0.919044	0.159717	0.339952
877	H	0.860692	0.105188	0.269474
878	O	0.858121	0.10266	0.088588
879	H	0.912456	0.155985	0.077549
880	O	0.913884	0.1595	0.25843
881	H	0.859378	0.082852	0.096139
882	H	0.933991	0.158846	0.250727
883	C	0.992385	0.24789	0.340313
884	C	0.973179	0.26408	0.340536
885	C	0.938238	0.247019	0.34053
886	C	0.921249	0.212322	0.34052
887	C	0.93824	0.194616	0.673639
888	C	0.973178	0.212495	0.67345
889	H	0.984168	0.289109	0.340793
890	H	0.984165	0.198455	0.673058
891	H	0.895886	0.199639	0.340574
892	C	0.528232	0.265813	0.340273
893	C	0.547442	0.301209	0.673379
894	C	0.582381	0.319087	0.673477
895	C	0.599367	0.301374	0.340178
896	C	0.582377	0.266677	0.340307
897	C	0.54744	0.249623	0.340489
898	H	0.536454	0.315249	0.673074
899	H	0.62473	0.314054	0.340151
900	H	0.53645	0.224595	0.340854
901	C	0.76927	0.247902	0.340347
902	C	0.753081	0.212511	0.340523
903	C	0.770142	0.194635	0.340256
904	C	0.804839	0.21234	0.340111
905	C	0.822549	0.247038	0.673463
906	C	0.804666	0.264095	0.673456
907	H	0.728053	0.19847	0.340871
908	H	0.818706	0.289122	0.673189
909	H	0.81752	0.199657	0.34004
910	C	0.751339	0.265815	0.340347
911	C	0.715943	0.249628	0.673402
912	C	0.698063	0.266689	0.673436
913	C	0.715776	0.301384	0.34007
914	C	0.750473	0.319085	0.340256
915	C	0.767531	0.301209	0.340587
916	H	0.701901	0.224599	0.673095
917	H	0.703099	0.314072	0.339989
918	H	0.792557	0.315249	0.340996
919	C	0.769291	0.024819	0.340425
920	C	0.804687	0.044021	0.340634
921	C	0.822575	0.078958	0.34008
922	C	0.804871	0.09595	0.339732
923	C	0.770174	0.078962	0.67323
924	C	0.753106	0.044027	0.673446
925	H	0.818725	0.033032	0.341158
926	H	0.728078	0.033042	0.67325
927	H	0.817555	0.121313	0.339543
928	C	0.751356	0.488975	0.340493
929	C	0.767549	0.469773	0.673581
930	C	0.750486	0.434836	0.673686
931	C	0.715791	0.417844	0.340489
932	C	0.698081	0.434831	0.34056
933	C	0.715961	0.469771	0.340705
934	H	0.792575	0.480758	0.673206
935	H	0.703111	0.392479	0.340496
936	H	0.701922	0.48076	0.34102
937	C	0.647507	0.25078	0.380799
938	C	0.61719	0.250492	0.381516
939	C	0.601566	0.250958	0.340638
940	C	0.616916	0.250627	0.632913
941	C	0.646979	0.250408	0.63223
942	C	0.663162	0.250983	0.673078
943	H	0.608094	0.25416	0.602977
944	O	0.60671	0.255517	0.42214
945	H	0.659908	0.254384	0.410712
946	O	0.662444	0.255246	0.591613
947	H	0.586649	0.234691	0.429774
948	H	0.661308	0.234256	0.583939
949	C	0.766736	0.400269	0.380924
950	C	0.766911	0.370182	0.381468
951	C	0.766184	0.353975	0.34057
952	C	0.766375	0.369726	0.632954
953	C	0.766562	0.399993	0.63242
954	C	0.766194	0.415657	0.673338
955	H	0.762548	0.35731	0.603014
956	O	0.762144	0.354701	0.422059
957	H	0.763205	0.409012	0.410925
958	O	0.761429	0.410466	0.591853
959	H	0.783156	0.355859	0.429652
960	H	0.782226	0.430539	0.584155
961	C	0.616944	0.369642	0.380891
962	C	0.646971	0.399961	0.381668
963	C	0.663179	0.415637	0.340874
964	C	0.647543	0.40025	0.633119
965	C	0.617266	0.370182	0.632338
966	C	0.601574	0.353988	0.673135
967	H	0.65994	0.409074	0.603213
968	O	0.662403	0.410427	0.42234
969	H	0.608098	0.357238	0.41079
970	O	0.606727	0.354731	0.591697
971	H	0.661626	0.430485	0.429943
972	H	0.58687	0.355841	0.583939
973	C	0.873102	0.263088	0.380938
974	C	0.903344	0.263221	0.381634
975	C	0.919043	0.262715	0.340817
976	C	0.903687	0.263103	0.633092
977	C	0.873602	0.263283	0.632345
978	C	0.857459	0.262762	0.673186
979	H	0.912417	0.2594	0.603193
980	O	0.913878	0.258282	0.422265
981	H	0.860691	0.259439	0.410844
982	O	0.85813	0.258282	0.591697
983	H	0.933804	0.279206	0.429973
984	H	0.858931	0.279122	0.58405
985	C	0.754082	0.113529	0.380586
986	C	0.753787	0.143554	0.38134
987	C	0.754411	0.159728	0.340479
988	C	0.754227	0.144134	0.632747
989	C	0.754031	0.113868	0.632058
990	C	0.754473	0.098149	0.672885
991	H	0.75785	0.156542	0.602838
992	O	0.758681	0.158981	0.422005
993	H	0.757597	0.104683	0.410516
994	O	0.758974	0.103322	0.59144
995	H	0.737824	0.158182	0.42953
996	H	0.738056	0.083387	0.583743
997	C	0.903701	0.143746	0.380864
998	C	0.873624	0.113468	0.38136
999	C	0.857484	0.098145	0.340371
1000	C	0.873134	0.113733	0.632737
1001	C	0.903403	0.143814	0.632281
1002	C	0.919044	0.159717	0.673284
1003	H	0.860692	0.105188	0.602808
1004	O	0.858121	0.10266	0.421921
1005	H	0.912456	0.155985	0.410881
1006	O	0.913884	0.1595	0.591765
1007	H	0.859378	0.082852	0.429473
1008	H	0.933991	0.158846	0.58406
1009	C	0.992385	0.24789	0.673646
1010	C	0.973179	0.26408	0.673869
1011	C	0.938238	0.247019	0.673865
1012	C	0.921249	0.212322	0.673852
1013	C	0.93824	0.194616	0.006973
1014	C	0.973178	0.212495	0.006782
1015	H	0.984168	0.289109	0.674129
1016	H	0.984165	0.198455	0.006393
1017	H	0.895886	0.199639	0.673909
1018	C	0.528232	0.265813	0.673608
1019	C	0.547442	0.301209	0.006711
1020	C	0.582381	0.319087	0.006809
1021	C	0.599367	0.301374	0.67351
1022	C	0.582377	0.266677	0.673639
1023	C	0.54744	0.249623	0.673825
1024	H	0.536454	0.315249	0.006407
1025	H	0.62473	0.314054	0.673483
1026	H	0.53645	0.224595	0.67419
1027	C	0.76927	0.247902	0.673679
1028	C	0.753081	0.212511	0.673855
1029	C	0.770142	0.194635	0.673591
1030	C	0.804839	0.21234	0.673443
1031	C	0.822549	0.247038	0.006795
1032	C	0.804666	0.264095	0.006792
1033	H	0.728053	0.19847	0.674203
1034	H	0.818706	0.289122	0.006521
1035	H	0.81752	0.199657	0.673375
1036	C	0.751339	0.265815	0.673679
1037	C	0.715943	0.249628	0.006734
1038	C	0.698063	0.266689	0.006771
1039	C	0.715776	0.301384	0.673406
1040	C	0.750473	0.319085	0.673588
1041	C	0.767531	0.301209	0.673919
1042	H	0.701901	0.224599	0.00643
1043	H	0.703099	0.314072	0.673321
1044	H	0.792557	0.315249	0.674332
1045	C	0.769291	0.024819	0.67376
1046	C	0.804687	0.044021	0.673967
1047	C	0.822575	0.078958	0.673412
1048	C	0.804871	0.09595	0.673068
1049	C	0.770174	0.078962	0.006562
1050	C	0.753106	0.044027	0.006782
1051	H	0.818725	0.033032	0.67449
1052	H	0.728078	0.033042	0.006582
1053	H	0.817555	0.121313	0.672875
1054	C	0.751356	0.488975	0.673828
1055	C	0.767549	0.469773	0.006915
1056	C	0.750486	0.434836	0.007021
1057	C	0.715791	0.417844	0.673825
1058	C	0.698081	0.434831	0.673892
1059	C	0.715961	0.469771	0.674038
1060	H	0.792575	0.480758	0.006538
1061	H	0.703111	0.392479	0.673828
1062	H	0.701922	0.48076	0.674355
1063	C	0.647507	0.25078	0.714131
1064	C	0.61719	0.250492	0.714851
1065	C	0.601566	0.250958	0.673973
1066	C	0.616916	0.250627	0.966245
1067	C	0.646979	0.250408	0.965562
1068	C	0.663162	0.250983	0.00641
1069	H	0.608094	0.25416	0.936312
1070	O	0.60671	0.255517	0.755476
1071	H	0.659908	0.254384	0.744044
1072	O	0.662444	0.255246	0.924945
1073	H	0.586649	0.234691	0.763109
1074	H	0.661308	0.234256	0.917271
1075	C	0.766736	0.400269	0.714256
1076	C	0.766911	0.370182	0.714801
1077	C	0.766184	0.353975	0.673902
1078	C	0.766375	0.369726	0.966289
1079	C	0.766562	0.399993	0.965752
1080	C	0.766194	0.415657	0.00667
1081	H	0.762548	0.35731	0.936346
1082	O	0.762144	0.354701	0.755395
1083	H	0.763205	0.409012	0.744257
1084	O	0.761429	0.410466	0.925185
1085	H	0.783156	0.355859	0.762988
1086	H	0.782226	0.430539	0.917487
1087	C	0.616944	0.369642	0.714223
1088	C	0.646971	0.399961	0.715
1089	C	0.663179	0.415637	0.674206
1090	C	0.647543	0.40025	0.966455
1091	C	0.617266	0.370182	0.965671
1092	C	0.601574	0.353988	0.006471
1093	H	0.65994	0.409074	0.936545
1094	O	0.662403	0.410427	0.755672
1095	H	0.608098	0.357238	0.744122
1096	O	0.606727	0.354731	0.925029
1097	H	0.661626	0.430485	0.763278
1098	H	0.58687	0.355841	0.917271
1099	C	0.873102	0.263088	0.71427
1100	C	0.903344	0.263221	0.714966
1101	C	0.919043	0.262715	0.674152
1102	C	0.903687	0.263103	0.966428
1103	C	0.873602	0.263283	0.965677
1104	C	0.857459	0.262762	0.006521
1105	H	0.912417	0.2594	0.936529
1106	O	0.913878	0.258282	0.755597
1107	H	0.860691	0.259439	0.744179
1108	O	0.85813	0.258282	0.925029
1109	H	0.933804	0.279206	0.763305
1110	H	0.858931	0.279122	0.917386
1111	C	0.754082	0.113529	0.713922
1112	C	0.753787	0.143554	0.714672
1113	C	0.754411	0.159728	0.673815
1114	C	0.754227	0.144134	0.966079
1115	C	0.754031	0.113868	0.965393
1116	C	0.754473	0.098149	0.006221
1117	H	0.75785	0.156542	0.93617
1118	O	0.758681	0.158981	0.755337
1119	H	0.757597	0.104683	0.743848
1120	O	0.758974	0.103322	0.924772
1121	H	0.737824	0.158182	0.762863
1122	H	0.738056	0.083387	0.917075
1123	C	0.903701	0.143746	0.714196
1124	C	0.873624	0.113468	0.714692
1125	C	0.857484	0.098145	0.673706
1126	C	0.873134	0.113733	0.966073
1127	C	0.903403	0.143814	0.965613
1128	C	0.919044	0.159717	0.006619
1129	H	0.860692	0.105188	0.93614
1130	O	0.858121	0.10266	0.755256
1131	H	0.912456	0.155985	0.744216
1132	O	0.913884	0.1595	0.925097
1133	H	0.859378	0.082852	0.762805
1134	H	0.933991	0.158846	0.917392
1135	C	0.992385	0.747891	0.006979
1136	C	0.973177	0.764078	0.007202
1137	C	0.938238	0.74702	0.007197
1138	C	0.921249	0.712322	0.007185
1139	C	0.93824	0.694616	0.340307
1140	C	0.973178	0.712495	0.340114
1141	H	0.984167	0.789108	0.007461
1142	H	0.984165	0.698455	0.339725
1143	H	0.895887	0.699639	0.007241
1144	C	0.528233	0.765814	0.006941
1145	C	0.547441	0.801208	0.340043
1146	C	0.582381	0.819086	0.340141
1147	C	0.599367	0.801375	0.006846
1148	C	0.582377	0.766678	0.006973
1149	C	0.547438	0.749621	0.007156
1150	H	0.536455	0.81525	0.339739
1151	H	0.62473	0.814055	0.006815
1152	H	0.536449	0.724595	0.007522
1153	C	0.769269	0.747903	0.007014
1154	C	0.753081	0.712509	0.007188
1155	C	0.770139	0.694634	0.006923
1156	C	0.804838	0.712339	0.006778
1157	C	0.822548	0.747037	0.340128
1158	C	0.804666	0.764093	0.340124
1159	H	0.728053	0.698469	0.007537
1160	H	0.818707	0.789122	0.339854
1161	H	0.817518	0.699657	0.006707
1162	C	0.75134	0.765816	0.007014
1163	C	0.715942	0.749626	0.340067
1164	C	0.698062	0.766688	0.340104
1165	C	0.715777	0.801385	0.006738
1166	C	0.750473	0.819086	0.006922
1167	C	0.767528	0.801208	0.007252
1168	H	0.701901	0.7246	0.339763
1169	H	0.703098	0.81407	0.006657
1170	H	0.792557	0.81525	0.007664
1171	C	0.769292	0.52482	0.007092
1172	C	0.804688	0.544022	0.0073
1173	C	0.822574	0.578956	0.006744
1174	C	0.804869	0.595949	0.0064
1175	C	0.770172	0.578961	0.339894
1176	C	0.753106	0.544027	0.340114
1177	H	0.818725	0.533033	0.007823
1178	H	0.728076	0.533042	0.339915
1179	H	0.817555	0.621313	0.006207
1180	C	0.751357	0.988976	0.007159
1181	C	0.767546	0.969772	0.340249
1182	C	0.750487	0.934837	0.340354
1183	C	0.71579	0.917843	0.007156
1184	C	0.698078	0.93483	0.007226
1185	C	0.715961	0.969769	0.00737
1186	H	0.792575	0.980759	0.339871
1187	H	0.703111	0.89248	0.007162
1188	H	0.701921	0.980759	0.007687
1189	C	0.647508	0.750781	0.047465
1190	C	0.61719	0.750493	0.048183
1191	C	0.601565	0.750957	0.007306
1192	C	0.616915	0.750626	0.29958
1193	C	0.646979	0.750409	0.298897
1194	C	0.663161	0.750981	0.339746
1195	H	0.608093	0.754158	0.269644
1196	O	0.606707	0.755516	0.088808
1197	H	0.659906	0.754385	0.077377
1198	O	0.662442	0.755247	0.258279
1199	H	0.586649	0.73469	0.096441
1200	H	0.661308	0.734256	0.250603
1201	C	0.766737	0.90027	0.04759
1202	C	0.766911	0.870183	0.048134
1203	C	0.766184	0.853974	0.007235
1204	C	0.766372	0.869724	0.299621
1205	C	0.766559	0.899991	0.299085
1206	C	0.766193	0.915656	0.340006
1207	H	0.762549	0.857311	0.26968
1208	O	0.762143	0.854699	0.088726
1209	H	0.763204	0.909011	0.077591
1210	O	0.761429	0.910467	0.258518
1211	H	0.783157	0.85586	0.09632
1212	H	0.782225	0.930537	0.250821
1213	C	0.616946	0.869643	0.047556
1214	C	0.646971	0.899959	0.048334
1215	C	0.663178	0.915636	0.007539
1216	C	0.647543	0.900248	0.299787
1217	C	0.617265	0.870183	0.299005
1218	C	0.601573	0.853988	0.339803
1219	H	0.659939	0.909075	0.269879
1220	O	0.662404	0.910428	0.089004
1221	H	0.608099	0.857239	0.077455
1222	O	0.606726	0.854731	0.258362
1223	H	0.661626	0.930485	0.09661
1224	H	0.586869	0.855842	0.250605
1225	C	0.873102	0.763086	0.047604
1226	C	0.903341	0.763219	0.048299
1227	C	0.919042	0.762713	0.007485
1228	C	0.903687	0.763103	0.299759
1229	C	0.873602	0.763284	0.299011
1230	C	0.857457	0.762763	0.339854
1231	H	0.912415	0.759401	0.26986
1232	O	0.913879	0.758283	0.088931
1233	H	0.860689	0.75944	0.077511
1234	O	0.858129	0.75828	0.258362
1235	H	0.933803	0.779205	0.096638
1236	H	0.85893	0.779121	0.250718
1237	C	0.754082	0.613528	0.047254
1238	C	0.753787	0.643553	0.048007
1239	C	0.754409	0.659729	0.007146
1240	C	0.754224	0.644133	0.299413
1241	C	0.754031	0.613866	0.298726
1242	C	0.754471	0.59815	0.339553
1243	H	0.75785	0.656542	0.269504
1244	O	0.758679	0.658981	0.088671
1245	H	0.757597	0.604684	0.077182
1246	O	0.758974	0.603322	0.258106
1247	H	0.737823	0.658181	0.096197
1248	H	0.738056	0.583387	0.250409
1249	C	0.903701	0.643746	0.047529
1250	C	0.873624	0.613469	0.048026
1251	C	0.857485	0.598145	0.007038
1252	C	0.873134	0.613733	0.299404
1253	C	0.903403	0.643813	0.298947
1254	C	0.919042	0.659716	0.339952
1255	H	0.860692	0.605188	0.269474
1256	O	0.858122	0.60266	0.088588
1257	H	0.912456	0.655984	0.077549
1258	O	0.913882	0.659499	0.25843
1259	H	0.859378	0.582851	0.096139
1260	H	0.933991	0.658845	0.250727
1261	C	0.992385	0.747891	0.340313
1262	C	0.973177	0.764078	0.340536
1263	C	0.938238	0.74702	0.34053
1264	C	0.921249	0.712322	0.34052
1265	C	0.93824	0.694616	0.673639
1266	C	0.973178	0.712495	0.67345
1267	H	0.984167	0.789108	0.340793
1268	H	0.984165	0.698455	0.673058
1269	H	0.895887	0.699639	0.340574
1270	C	0.528233	0.765814	0.340273
1271	C	0.547441	0.801208	0.673379
1272	C	0.582381	0.819086	0.673477
1273	C	0.599367	0.801375	0.340178
1274	C	0.582377	0.766678	0.340307
1275	C	0.547438	0.749621	0.340489
1276	H	0.536455	0.81525	0.673074
1277	H	0.62473	0.814055	0.340151
1278	H	0.536449	0.724595	0.340854
1279	C	0.769269	0.747903	0.340347
1280	C	0.753081	0.712509	0.340523
1281	C	0.770139	0.694634	0.340256
1282	C	0.804838	0.712339	0.340111
1283	C	0.822548	0.747037	0.673463
1284	C	0.804666	0.764093	0.673456
1285	H	0.728053	0.698469	0.340871
1286	H	0.818707	0.789122	0.673189
1287	H	0.817518	0.699657	0.34004
1288	C	0.75134	0.765816	0.340347
1289	C	0.715942	0.749626	0.673402
1290	C	0.698062	0.766688	0.673436
1291	C	0.715777	0.801385	0.34007
1292	C	0.750473	0.819086	0.340256
1293	C	0.767528	0.801208	0.340587
1294	H	0.701901	0.7246	0.673095
1295	H	0.703098	0.81407	0.339989
1296	H	0.792557	0.81525	0.340996
1297	C	0.769292	0.52482	0.340425
1298	C	0.804688	0.544022	0.340634
1299	C	0.822574	0.578956	0.34008
1300	C	0.804869	0.595949	0.339732
1301	C	0.770172	0.578961	0.67323
1302	C	0.753106	0.544027	0.673446
1303	H	0.818725	0.533033	0.341158
1304	H	0.728076	0.533042	0.67325
1305	H	0.817555	0.621313	0.339543
1306	C	0.751357	0.988976	0.340493
1307	C	0.767546	0.969772	0.673581
1308	C	0.750487	0.934837	0.673686
1309	C	0.71579	0.917843	0.340489
1310	C	0.698078	0.93483	0.34056
1311	C	0.715961	0.969769	0.340705
1312	H	0.792575	0.980759	0.673206
1313	H	0.703111	0.89248	0.340496
1314	H	0.701921	0.980759	0.34102
1315	C	0.647508	0.750781	0.380799
1316	C	0.61719	0.750493	0.381516
1317	C	0.601565	0.750957	0.340638
1318	C	0.616915	0.750626	0.632913
1319	C	0.646979	0.750409	0.63223
1320	C	0.663161	0.750981	0.673078
1321	H	0.608093	0.754158	0.602977
1322	O	0.606707	0.755516	0.42214
1323	H	0.659906	0.754385	0.410712
1324	O	0.662442	0.755247	0.591613
1325	H	0.586649	0.73469	0.429774
1326	H	0.661308	0.734256	0.583939
1327	C	0.766737	0.90027	0.380924
1328	C	0.766911	0.870183	0.381468
1329	C	0.766184	0.853974	0.34057
1330	C	0.766372	0.869724	0.632954
1331	C	0.766559	0.899991	0.63242
1332	C	0.766193	0.915656	0.673338
1333	H	0.762549	0.857311	0.603014
1334	O	0.762143	0.854699	0.422059
1335	H	0.763204	0.909011	0.410925
1336	O	0.761429	0.910467	0.591853
1337	H	0.783157	0.85586	0.429652
1338	H	0.782225	0.930537	0.584155
1339	C	0.616946	0.869643	0.380891
1340	C	0.646971	0.899959	0.381668
1341	C	0.663178	0.915636	0.340874
1342	C	0.647543	0.900248	0.633119
1343	C	0.617265	0.870183	0.632338
1344	C	0.601573	0.853988	0.673135
1345	H	0.659939	0.909075	0.603213
1346	O	0.662404	0.910428	0.42234
1347	H	0.608099	0.857239	0.41079
1348	O	0.606726	0.854731	0.591697
1349	H	0.661626	0.930485	0.429943
1350	H	0.586869	0.855842	0.583939
1351	C	0.873102	0.763086	0.380938
1352	C	0.903341	0.763219	0.381634
1353	C	0.919042	0.762713	0.340817
1354	C	0.903687	0.763103	0.633092
1355	C	0.873602	0.763284	0.632345
1356	C	0.857457	0.762763	0.673186
1357	H	0.912415	0.759401	0.603193
1358	O	0.913879	0.758283	0.422265
1359	H	0.860689	0.75944	0.410844
1360	O	0.858129	0.75828	0.591697
1361	H	0.933803	0.779205	0.42997
1362	H	0.85893	0.779121	0.58405
1363	C	0.754082	0.613528	0.380586
1364	C	0.753787	0.643553	0.38134
1365	C	0.754409	0.659729	0.340479
1366	C	0.754224	0.644133	0.632747
1367	C	0.754031	0.613866	0.632058
1368	C	0.754471	0.59815	0.672885
1369	H	0.75785	0.656542	0.602838
1370	O	0.758679	0.658981	0.422005
1371	H	0.757597	0.604684	0.410516
1372	O	0.758974	0.603322	0.59144
1373	H	0.737823	0.658181	0.42953
1374	H	0.738056	0.583387	0.583743
1375	C	0.903701	0.643746	0.380864
1376	C	0.873624	0.613469	0.38136
1377	C	0.857485	0.598145	0.340371
1378	C	0.873134	0.613733	0.632737
1379	C	0.903403	0.643813	0.632281
1380	C	0.919042	0.659716	0.673284
1381	H	0.860692	0.605188	0.602808
1382	O	0.858122	0.60266	0.421921
1383	H	0.912456	0.655984	0.410881
1384	O	0.913882	0.659499	0.591765
1385	H	0.859378	0.582851	0.429473
1386	H	0.933991	0.658845	0.58406
1387	C	0.992385	0.747891	0.673646
1388	C	0.973177	0.764078	0.673869
1389	C	0.938238	0.74702	0.673865
1390	C	0.921249	0.712322	0.673852
1391	C	0.93824	0.694616	0.006973
1392	C	0.973178	0.712495	0.006782
1393	H	0.984167	0.789108	0.674129
1394	H	0.984165	0.698455	0.006393
1395	H	0.895887	0.699639	0.673909
1396	C	0.528233	0.765814	0.673608
1397	C	0.547441	0.801208	0.006711
1398	C	0.582381	0.819086	0.006809
1399	C	0.599367	0.801375	0.67351
1400	C	0.582377	0.766678	0.673639
1401	C	0.547438	0.749621	0.673825
1402	H	0.536455	0.81525	0.006407
1403	H	0.62473	0.814055	0.673483
1404	H	0.536449	0.724595	0.67419
1405	C	0.769269	0.747903	0.673679
1406	C	0.753081	0.712509	0.673855
1407	C	0.770139	0.694634	0.673591
1408	C	0.804838	0.712339	0.673443
1409	C	0.822548	0.747037	0.006795
1410	C	0.804666	0.764093	0.006792
1411	H	0.728053	0.698469	0.674203
1412	H	0.818707	0.789122	0.006521
1413	H	0.817518	0.699657	0.673375
1414	C	0.75134	0.765816	0.673679
1415	C	0.715942	0.749626	0.006734
1416	C	0.698062	0.766688	0.006771
1417	C	0.715777	0.801385	0.673406
1418	C	0.750473	0.819086	0.673588
1419	C	0.767528	0.801208	0.673919
1420	H	0.701901	0.7246	0.00643
1421	H	0.703098	0.81407	0.673321
1422	H	0.792557	0.81525	0.674332
1423	C	0.769292	0.52482	0.67376
1424	C	0.804688	0.544022	0.673967
1425	C	0.822574	0.578956	0.673412
1426	C	0.804869	0.595949	0.673068
1427	C	0.770172	0.578961	0.006562
1428	C	0.753106	0.544027	0.006782
1429	H	0.818725	0.533033	0.67449
1430	H	0.728076	0.533042	0.006582
1431	H	0.817555	0.621313	0.672875
1432	C	0.751357	0.988976	0.673828
1433	C	0.767546	0.969772	0.006916
1434	C	0.750487	0.934837	0.007021
1435	C	0.71579	0.917843	0.673825
1436	C	0.698078	0.93483	0.673892
1437	C	0.715961	0.969769	0.674038
1438	H	0.792575	0.980759	0.006538
1439	H	0.703111	0.89248	0.673828
1440	H	0.701921	0.980759	0.674355
1441	C	0.647508	0.750781	0.714131
1442	C	0.61719	0.750493	0.714851
1443	C	0.601565	0.750957	0.673973
1444	C	0.616915	0.750626	0.966245
1445	C	0.646979	0.750409	0.965562
1446	C	0.663161	0.750981	0.00641
1447	H	0.608093	0.754158	0.936312
1448	O	0.606707	0.755516	0.755476
1449	H	0.659906	0.754385	0.744044
1450	O	0.662442	0.755247	0.924945
1451	H	0.586649	0.73469	0.763109
1452	H	0.661308	0.734256	0.917271
1453	C	0.766737	0.90027	0.714256
1454	C	0.766911	0.870183	0.714801
1455	C	0.766184	0.853974	0.673902
1456	C	0.766372	0.869724	0.966289
1457	C	0.766559	0.899991	0.965752
1458	C	0.766193	0.915656	0.00667
1459	H	0.762549	0.857311	0.936346
1460	O	0.762143	0.854699	0.755395
1461	H	0.763204	0.909011	0.744257
1462	O	0.761429	0.910467	0.925185
1463	H	0.783157	0.85586	0.762988
1464	H	0.782225	0.930537	0.917487
1465	C	0.616946	0.869643	0.714223
1466	C	0.646971	0.899959	0.715
1467	C	0.663178	0.915636	0.674206
1468	C	0.647543	0.900248	0.966455
1469	C	0.617265	0.870183	0.965671
1470	C	0.601573	0.853988	0.006471
1471	H	0.659939	0.909075	0.936545
1472	O	0.662404	0.910428	0.755672
1473	H	0.608099	0.857239	0.744122
1474	O	0.606726	0.854731	0.925029
1475	H	0.661626	0.930485	0.763278
1476	H	0.586869	0.855842	0.917271
1477	C	0.873102	0.763086	0.71427
1478	C	0.903341	0.763219	0.714966
1479	C	0.919042	0.762713	0.674152
1480	C	0.903687	0.763103	0.966428
1481	C	0.873602	0.763284	0.965677
1482	C	0.857457	0.762763	0.006521
1483	H	0.912415	0.759401	0.936529
1484	O	0.913879	0.758283	0.755597
1485	H	0.860689	0.75944	0.744179
1486	O	0.858129	0.75828	0.925029
1487	H	0.933803	0.779205	0.763305
1488	H	0.85893	0.779121	0.917386
1489	C	0.754082	0.613528	0.713922
1490	C	0.753787	0.643553	0.714672
1491	C	0.754409	0.659729	0.673815
1492	C	0.754224	0.644133	0.966079
1493	C	0.754031	0.613866	0.965393
1494	C	0.754471	0.59815	0.006221
1495	H	0.75785	0.656542	0.93617
1496	O	0.758679	0.658981	0.755337
1497	H	0.757597	0.604684	0.743848
1498	O	0.758974	0.603322	0.924772
1499	H	0.737823	0.658181	0.762863
1500	H	0.738056	0.583387	0.917078
1501	C	0.903701	0.643746	0.714196
1502	C	0.873624	0.613469	0.714692
1503	C	0.857485	0.598145	0.673706
1504	C	0.873134	0.613733	0.966073
1505	C	0.903403	0.643813	0.965613
1506	C	0.919042	0.659716	0.006619
1507	H	0.860692	0.605188	0.93614
1508	O	0.858122	0.60266	0.755256
1509	H	0.912456	0.655984	0.744216
1510	O	0.913882	0.659499	0.925097
1511	H	0.859378	0.582851	0.762805
1512	H	0.933991	0.658845	0.917392
