data_C672H384N168_2018-02-15_10:48:13
#******************************************
#
# CIF file created by Zeo++
# Zeo++ is an open source package to
# analyze microporous materials
#
#*******************************************

_cell_length_a		46.2232   
_cell_length_b		38.1657   
_cell_length_c		30.0534   
_cell_angle_alpha		89.9565   
_cell_angle_beta		90.0359   
_cell_angle_gamma		89.9441   

_symmetry_space_group_name_H-M		'P1'
_symmetry_Int_Tables_number		1
_symmetry_cell_setting		Triclinic

loop_
_symmetry_equiv_pos_as_xyz
'+x,+y,+z'

loop_
_atom_site_label
_atom_site_type_symbol
_atom_site_fract_x
_atom_site_fract_y
_atom_site_fract_z
1	C	0.472048	0.105286	0.337519
2	C	0.442388	0.105618	0.340766
3	C	0.431812	0.074331	0.323104
4	N	0.455684	0.054855	0.313777
5	C	0.480773	0.072471	0.321803
6	C	0.009777	0.062065	0.31185
7	C	0.016936	0.026449	0.303202
8	N	8e-05	0.998359	0.312575
9	C	0.014484	0.467868	0.306574
10	C	0.041864	0.476932	0.290804
11	C	0.043789	0.012879	0.290568
12	C	0.004794	0.433367	0.316344
13	C	0.474929	0.425835	0.323661
14	N	0.451078	0.445416	0.314455
15	C	0.425991	0.427736	0.322332
16	C	0.434708	0.394982	0.338351
17	C	0.46437	0.394613	0.341552
18	C	0.397014	0.438037	0.311898
19	C	0.389899	0.473613	0.30279
20	N	0.406695	0.001739	0.312246
21	C	0.392287	0.032223	0.306122
22	C	0.364904	0.023128	0.290365
23	C	0.363002	0.48718	0.290269
24	C	0.401938	0.066718	0.315968
25	C	0.380946	0.094065	0.319637
26	C	0.355055	0.089627	0.011166
27	C	0.334201	0.116394	0.014314
28	C	0.339521	0.149315	0.328078
29	C	0.365314	0.154529	0.304119
30	C	0.385177	0.126994	0.298758
31	C	0.374105	0.413094	0.314243
32	C	0.369079	0.393558	0.020238
33	C	0.348443	0.366599	0.021495
34	C	0.329925	0.360529	0.318186
35	C	0.332546	0.38234	0.280559
36	C	0.355163	0.406992	0.277892
37	C	0.025764	0.405992	0.320105
38	C	0.021468	0.373035	0.299386
39	C	0.041321	0.345484	0.304825
40	C	0.067136	0.350681	0.328776
41	C	0.072488	0.383608	0.01492
42	C	0.051682	0.410419	0.011614
43	C	0.032704	0.086958	0.314431
44	C	0.051719	0.093162	0.278231
45	C	0.037625	0.106373	0.020519
46	C	0.05822	0.133373	0.021968
47	C	0.076813	0.139552	0.318798
48	C	0.074356	0.117771	0.281145
49	H	0.086893	0.122379	0.253704
50	H	0.048676	0.080456	0.248628
51	H	0.060353	0.147494	0.050676
52	H	0.025646	0.101607	0.048503
53	H	0.484404	0.126543	0.345099
54	H	0.43086	0.126583	0.352199
55	H	0.454808	0.032912	0.297739
56	H	0.451955	0.466987	0.297573
57	H	0.062443	0.025927	0.283504
58	H	0.058551	0.46058	0.282727
59	H	0.003748	0.368766	0.279702
60	H	0.037311	0.32199	0.289598
61	H	0.055415	0.433189	0.028618
62	H	0.090712	0.387674	0.033492
63	H	0.475898	0.373603	0.352905
64	H	0.422379	0.373639	0.345644
65	H	0.348121	0.039443	0.282588
66	H	0.34429	0.474128	0.283559
67	H	0.380956	0.398282	0.048352
68	H	0.346249	0.352388	0.050146
69	H	0.358256	0.419796	0.24835
70	H	0.319989	0.377942	0.253066
71	H	0.402864	0.131264	0.279031
72	H	0.36927	0.177998	0.288757
73	H	0.316026	0.112359	0.032982
74	H	0.351377	0.066882	0.028285
75	N	0.310841	0.33354	0.316426
76	N	0.085203	0.323037	0.331724
77	N	0.095859	0.166588	0.317221
78	N	0.321428	0.176939	0.330867
79	C	0.12396	0.284329	0.008757
80	N	0.152661	0.27776	0.004274
81	C	0.162691	0.244462	0.998538
82	N	0.143348	0.217482	0.997853
83	C	0.114614	0.223439	0.00379
84	N	0.105454	0.256826	0.009222
85	C	0.093744	0.19707	0.00652
86	C	0.112875	0.318371	0.011458
87	C	0.192413	0.237175	0.995401
88	H	0.198437	0.211372	0.994296
89	H	0.126438	0.33938	0.014446
90	H	0.073777	0.203848	0.0186
91	C	0.28269	0.215722	0.007969
92	N	0.253976	0.222331	0.003771
93	C	0.243942	0.255652	0.998156
94	N	0.263304	0.28261	0.997307
95	C	0.29206	0.27661	0.002983
96	N	0.301219	0.2432	0.008279
97	C	0.312963	0.30296	0.005558
98	C	0.293756	0.181666	0.010496
99	C	0.214208	0.26296	0.995307
100	H	0.208182	0.288767	0.994289
101	H	0.280275	0.160613	0.013883
102	H	0.332918	0.296067	0.017652
103	C	0.472049	0.105286	0.670852
104	C	0.442388	0.105617	0.674099
105	C	0.431811	0.074332	0.656438
106	N	0.455684	0.054855	0.647111
107	C	0.480775	0.072471	0.655137
108	C	0.009777	0.062065	0.645184
109	C	0.016936	0.026449	0.636536
110	N	8e-05	0.998358	0.64591
111	C	0.014484	0.467867	0.639907
112	C	0.041864	0.476932	0.624138
113	C	0.043789	0.012879	0.623902
114	C	0.004794	0.433367	0.649676
115	C	0.474931	0.425835	0.656993
116	N	0.451077	0.445418	0.64779
117	C	0.42599	0.427735	0.655666
118	C	0.434709	0.394982	0.671684
119	C	0.464369	0.394613	0.674885
120	C	0.397016	0.438039	0.645231
121	C	0.389898	0.473613	0.636124
122	N	0.406694	0.001739	0.64558
123	C	0.392287	0.032223	0.639454
124	C	0.364903	0.023128	0.623699
125	C	0.363002	0.48718	0.623603
126	C	0.40194	0.066718	0.6493
127	C	0.380947	0.094065	0.65297
128	C	0.355057	0.089627	0.3445
129	C	0.334201	0.116394	0.347648
130	C	0.33952	0.149315	0.661412
131	C	0.365313	0.154529	0.637451
132	C	0.385176	0.126994	0.632091
133	C	0.374105	0.413094	0.647577
134	C	0.369081	0.393558	0.35357
135	C	0.348443	0.366599	0.354828
136	C	0.329924	0.360528	0.65152
137	C	0.332546	0.38234	0.613893
138	C	0.355163	0.406992	0.611225
139	C	0.025764	0.405995	0.65344
140	C	0.021468	0.373035	0.63272
141	C	0.04132	0.345484	0.638157
142	C	0.067136	0.350681	0.662111
143	C	0.072488	0.383607	0.348253
144	C	0.051682	0.410419	0.344949
145	C	0.032704	0.086958	0.647763
146	C	0.051719	0.093162	0.611564
147	C	0.037625	0.106373	0.353853
148	C	0.05822	0.133373	0.355301
149	C	0.076813	0.139553	0.652132
150	C	0.074356	0.117771	0.614479
151	H	0.086893	0.122379	0.587038
152	H	0.048676	0.080456	0.58196
153	H	0.060353	0.147494	0.384009
154	H	0.025646	0.101607	0.381837
155	H	0.484406	0.126543	0.678432
156	H	0.43086	0.126584	0.685532
157	H	0.454808	0.032912	0.631073
158	H	0.451955	0.466987	0.630906
159	H	0.062444	0.025927	0.616838
160	H	0.058551	0.460579	0.616059
161	H	0.003748	0.368766	0.613035
162	H	0.037312	0.32199	0.622931
163	H	0.055415	0.433188	0.361952
164	H	0.090712	0.387673	0.366827
165	H	0.475898	0.373603	0.686241
166	H	0.422378	0.373639	0.678977
167	H	0.34812	0.039443	0.615923
168	H	0.344292	0.47413	0.616891
169	H	0.380955	0.398281	0.381687
170	H	0.346248	0.352388	0.38348
171	H	0.358256	0.419796	0.581684
172	H	0.319988	0.377942	0.586399
173	H	0.402864	0.131264	0.612363
174	H	0.369269	0.177998	0.622092
175	H	0.316028	0.112359	0.366318
176	H	0.351376	0.066882	0.361619
177	N	0.310842	0.333539	0.649759
178	N	0.085203	0.323036	0.665059
179	N	0.095859	0.166588	0.650555
180	N	0.321428	0.176939	0.6642
181	C	0.12396	0.284328	0.342091
182	N	0.152661	0.277762	0.337609
183	C	0.162691	0.244462	0.331873
184	N	0.143348	0.217483	0.331186
185	C	0.114615	0.223439	0.337123
186	N	0.105455	0.256826	0.342557
187	C	0.093745	0.19707	0.339855
188	C	0.112875	0.31837	0.344793
189	C	0.192413	0.237175	0.328733
190	H	0.198437	0.211372	0.327627
191	H	0.126437	0.339379	0.347781
192	H	0.073777	0.203847	0.351933
193	C	0.282689	0.215722	0.341302
194	N	0.253976	0.222332	0.337106
195	C	0.243943	0.255652	0.331488
196	N	0.263305	0.282611	0.330641
197	C	0.292062	0.27661	0.336318
198	N	0.301219	0.2432	0.341612
199	C	0.312962	0.302959	0.338893
200	C	0.293755	0.181666	0.343828
201	C	0.214208	0.262961	0.328641
202	H	0.208182	0.288768	0.327621
203	H	0.280274	0.160613	0.347215
204	H	0.332919	0.296066	0.350985
205	C	0.472048	0.105286	0.004184
206	C	0.442386	0.105617	0.007433
207	C	0.431813	0.074332	0.989771
208	N	0.455683	0.054855	0.980444
209	C	0.480774	0.072471	0.98847
210	C	0.009777	0.062065	0.978517
211	C	0.016936	0.026449	0.969869
212	N	8e-05	0.998358	0.979243
213	C	0.014484	0.467867	0.97324
214	C	0.041863	0.476932	0.957471
215	C	0.043789	0.012879	0.957235
216	C	0.004794	0.433369	0.983013
217	C	0.47493	0.425837	0.99033
218	N	0.451077	0.445418	0.981123
219	C	0.42599	0.427735	0.988999
220	C	0.434708	0.394982	0.005016
221	C	0.46437	0.394614	0.008217
222	C	0.397015	0.438039	0.978564
223	C	0.389898	0.473613	0.969457
224	N	0.406694	0.001739	0.978913
225	C	0.392286	0.032223	0.972787
226	C	0.364903	0.023128	0.957032
227	C	0.363004	0.487179	0.956936
228	C	0.401939	0.066718	0.982637
229	C	0.380947	0.094065	0.986303
230	C	0.355056	0.089627	0.677833
231	C	0.3342	0.116393	0.680981
232	C	0.339522	0.149315	0.994745
233	C	0.365313	0.154529	0.970784
234	C	0.385178	0.126994	0.965424
235	C	0.374106	0.413093	0.98091
236	C	0.369081	0.393558	0.686903
237	C	0.348442	0.366598	0.688161
238	C	0.329924	0.360528	0.984853
239	C	0.332545	0.382342	0.947226
240	C	0.355165	0.406992	0.944558
241	C	0.025764	0.405994	0.986773
242	C	0.021468	0.373035	0.966053
243	C	0.04132	0.345483	0.971493
244	C	0.067136	0.35068	0.995444
245	C	0.072488	0.383607	0.681586
246	C	0.051682	0.410421	0.678282
247	C	0.032704	0.086958	0.981099
248	C	0.051719	0.093162	0.944897
249	C	0.037625	0.106373	0.687186
250	C	0.05822	0.133373	0.688634
251	C	0.076813	0.139553	0.985465
252	C	0.074356	0.117771	0.947812
253	H	0.086893	0.122379	0.920371
254	H	0.048676	0.080456	0.915297
255	H	0.060353	0.147494	0.717342
256	H	0.025646	0.101607	0.71517
257	H	0.484404	0.126543	0.011764
258	H	0.430861	0.126584	0.018867
259	H	0.454809	0.032912	0.964406
260	H	0.451954	0.466987	0.964239
261	H	0.062444	0.025927	0.950171
262	H	0.058551	0.460582	0.949396
263	H	0.003748	0.368765	0.946368
264	H	0.037312	0.32199	0.956264
265	H	0.055415	0.433188	0.695285
266	H	0.090712	0.387673	0.70016
267	H	0.475899	0.373601	0.019573
268	H	0.422379	0.37364	0.012312
269	H	0.34812	0.039443	0.949256
270	H	0.344291	0.47413	0.950224
271	H	0.380955	0.398281	0.71502
272	H	0.34625	0.352388	0.716813
273	H	0.358257	0.419796	0.915017
274	H	0.319988	0.377941	0.919732
275	H	0.402865	0.131264	0.945699
276	H	0.369271	0.177998	0.955425
277	H	0.316027	0.112359	0.699651
278	H	0.351378	0.066882	0.694952
279	N	0.310842	0.333539	0.983092
280	N	0.085203	0.323036	0.998392
281	N	0.095859	0.166588	0.983888
282	N	0.32143	0.176939	0.997533
283	C	0.12396	0.284328	0.675424
284	N	0.152661	0.277762	0.670942
285	C	0.162691	0.244462	0.665205
286	N	0.143348	0.217483	0.66452
287	C	0.114614	0.223439	0.670456
288	N	0.105455	0.256826	0.67589
289	C	0.093745	0.19707	0.673188
290	C	0.112875	0.318373	0.678126
291	C	0.192413	0.237175	0.662068
292	H	0.198437	0.211372	0.660959
293	H	0.126438	0.339379	0.681114
294	H	0.073777	0.203847	0.685266
295	C	0.282691	0.215722	0.674635
296	N	0.253975	0.222332	0.670439
297	C	0.243943	0.255652	0.664823
298	N	0.263305	0.282611	0.663974
299	C	0.292062	0.27661	0.669651
300	N	0.30122	0.2432	0.674945
301	C	0.312962	0.302959	0.672226
302	C	0.293755	0.181666	0.677164
303	C	0.214208	0.262961	0.661974
304	H	0.208182	0.288767	0.660953
305	H	0.280274	0.160613	0.680551
306	H	0.332919	0.296066	0.684318
307	C	0.472047	0.605287	0.337519
308	C	0.442388	0.605617	0.340766
309	C	0.431811	0.57433	0.323104
310	N	0.455684	0.554855	0.313777
311	C	0.480773	0.572471	0.321803
312	C	0.009777	0.562064	0.31185
313	C	0.016936	0.526448	0.303202
314	N	8e-05	0.49836	0.312575
315	C	0.014484	0.967866	0.306574
316	C	0.041864	0.976931	0.290804
317	C	0.043789	0.512878	0.290568
318	C	0.004794	0.933369	0.316344
319	C	0.474929	0.925837	0.323661
320	N	0.451077	0.945417	0.314455
321	C	0.42599	0.927734	0.322332
322	C	0.434709	0.894983	0.338351
323	C	0.464369	0.894615	0.341552
324	C	0.397016	0.938038	0.311898
325	C	0.389899	0.973612	0.30279
326	N	0.406694	0.501738	0.312246
327	C	0.392287	0.532224	0.306122
328	C	0.364903	0.523128	0.290365
329	C	0.363002	0.987179	0.290269
330	C	0.40194	0.566718	0.315968
331	C	0.380947	0.594065	0.319637
332	C	0.355057	0.589627	0.011165
333	C	0.334201	0.616393	0.014314
334	C	0.33952	0.649313	0.328078
335	C	0.365314	0.654529	0.304119
336	C	0.385176	0.626994	0.298758
337	C	0.374105	0.913093	0.314243
338	C	0.369081	0.893557	0.020238
339	C	0.348443	0.866598	0.021495
340	C	0.329924	0.860527	0.318186
341	C	0.332546	0.882342	0.280559
342	C	0.355163	0.906991	0.277892
343	C	0.025764	0.905994	0.320105
344	C	0.021468	0.873037	0.299386
345	C	0.041321	0.845482	0.304825
346	C	0.067136	0.85068	0.328776
347	C	0.072488	0.883606	0.01492
348	C	0.051682	0.91042	0.011614
349	C	0.032704	0.586957	0.314431
350	C	0.051719	0.593162	0.278231
351	C	0.037625	0.606372	0.020519
352	C	0.058219	0.633372	0.021968
353	C	0.076813	0.639551	0.318798
354	C	0.074356	0.617771	0.281145
355	H	0.086893	0.622378	0.253704
356	H	0.048676	0.580456	0.248628
357	H	0.060353	0.647493	0.050676
358	H	0.025646	0.601605	0.048503
359	H	0.484406	0.626542	0.345099
360	H	0.43086	0.626582	0.352199
361	H	0.454808	0.532913	0.297739
362	H	0.451955	0.966986	0.297573
363	H	0.062443	0.525926	0.283504
364	H	0.058551	0.960581	0.282727
365	H	0.003748	0.868764	0.279702
366	H	0.037311	0.821989	0.289598
367	H	0.055415	0.933187	0.028618
368	H	0.090712	0.887672	0.033492
369	H	0.475898	0.873602	0.352905
370	H	0.422379	0.873638	0.345644
371	H	0.34812	0.539444	0.282588
372	H	0.344292	0.974129	0.283559
373	H	0.380955	0.89828	0.048352
374	H	0.346248	0.85239	0.050146
375	H	0.358256	0.919795	0.24835
376	H	0.319988	0.87794	0.253066
377	H	0.402864	0.631264	0.279031
378	H	0.369269	0.677996	0.288757
379	H	0.316026	0.61236	0.032982
380	H	0.351376	0.566882	0.028285
381	N	0.310842	0.833538	0.316426
382	N	0.085203	0.823035	0.331724
383	N	0.095859	0.666587	0.317221
384	N	0.321428	0.676939	0.330867
385	C	0.12396	0.784327	0.008757
386	N	0.152661	0.777761	0.004274
387	C	0.162691	0.744461	0.998538
388	N	0.143348	0.717482	0.997853
389	C	0.114614	0.723438	0.00379
390	N	0.105455	0.756826	0.009222
391	C	0.093744	0.697069	0.00652
392	C	0.112875	0.818372	0.011458
393	C	0.192413	0.737174	0.995401
394	H	0.198437	0.711371	0.994296
395	H	0.126438	0.839378	0.014446
396	H	0.073777	0.703846	0.0186
397	C	0.282689	0.715721	0.007969
398	N	0.253976	0.722332	0.003771
399	C	0.243942	0.755652	0.998156
400	N	0.263304	0.782609	0.997307
401	C	0.292062	0.776609	0.002983
402	N	0.301219	0.743199	0.008279
403	C	0.312962	0.802958	0.005558
404	C	0.293756	0.681666	0.010496
405	C	0.214208	0.762959	0.995307
406	H	0.208182	0.788765	0.994289
407	H	0.280274	0.660614	0.013883
408	H	0.332917	0.796065	0.017652
409	C	0.472049	0.605286	0.670852
410	C	0.442387	0.605617	0.674099
411	C	0.431813	0.57433	0.656438
412	N	0.455683	0.554855	0.647111
413	C	0.480774	0.57247	0.655137
414	C	0.009777	0.562064	0.645184
415	C	0.016936	0.526448	0.636536
416	N	8e-05	0.49836	0.64591
417	C	0.014484	0.967868	0.639907
418	C	0.041864	0.976931	0.624138
419	C	0.043789	0.512878	0.623902
420	C	0.004794	0.933368	0.649676
421	C	0.474931	0.925836	0.656993
422	N	0.451077	0.945417	0.64779
423	C	0.42599	0.927734	0.655666
424	C	0.434709	0.894983	0.671684
425	C	0.464369	0.894614	0.674885
426	C	0.397016	0.938037	0.645231
427	C	0.389898	0.973614	0.636124
428	N	0.406694	0.501737	0.64558
429	C	0.392286	0.532224	0.639454
430	C	0.364903	0.523128	0.623699
431	C	0.363002	0.987178	0.623603
432	C	0.40194	0.566717	0.6493
433	C	0.380947	0.594064	0.65297
434	C	0.355056	0.589627	0.3445
435	C	0.3342	0.616393	0.347648
436	C	0.339522	0.649313	0.661412
437	C	0.365313	0.654528	0.637451
438	C	0.385176	0.626994	0.632091
439	C	0.374107	0.913092	0.647577
440	C	0.369081	0.893559	0.35357
441	C	0.348442	0.866597	0.354828
442	C	0.329924	0.860527	0.65152
443	C	0.332545	0.882341	0.613893
444	C	0.355165	0.906991	0.611225
445	C	0.025764	0.905993	0.65344
446	C	0.021468	0.873036	0.63272
447	C	0.04132	0.845485	0.638157
448	C	0.067136	0.850679	0.662111
449	C	0.072488	0.883606	0.348253
450	C	0.051682	0.91042	0.344949
451	C	0.032704	0.586956	0.647763
452	C	0.051719	0.593162	0.611564
453	C	0.037625	0.606372	0.353853
454	C	0.05822	0.633372	0.355301
455	C	0.076813	0.639553	0.652132
456	C	0.074356	0.617771	0.614479
457	H	0.086893	0.622378	0.587038
458	H	0.048676	0.580456	0.58196
459	H	0.060353	0.647493	0.384009
460	H	0.025646	0.601605	0.381837
461	H	0.484405	0.626542	0.678432
462	H	0.430859	0.626582	0.685532
463	H	0.45481	0.532913	0.631073
464	H	0.451955	0.966988	0.630906
465	H	0.062443	0.525925	0.616838
466	H	0.058551	0.96058	0.616059
467	H	0.003748	0.868764	0.613035
468	H	0.037311	0.821989	0.622931
469	H	0.055415	0.933187	0.361952
470	H	0.090712	0.887672	0.366827
471	H	0.475897	0.873602	0.686241
472	H	0.422378	0.873638	0.678977
473	H	0.34812	0.539443	0.615923
474	H	0.344291	0.974129	0.616891
475	H	0.380955	0.89828	0.381687
476	H	0.346248	0.852389	0.38348
477	H	0.358258	0.919795	0.581684
478	H	0.319988	0.87794	0.586399
479	H	0.402866	0.631263	0.612363
480	H	0.369269	0.677999	0.622092
481	H	0.316028	0.61236	0.366314
482	H	0.351378	0.566882	0.361619
483	N	0.310842	0.833538	0.649759
484	N	0.085203	0.823035	0.665059
485	N	0.095859	0.666586	0.650555
486	N	0.32143	0.676938	0.6642
487	C	0.12396	0.784329	0.342091
488	N	0.152661	0.777761	0.337609
489	C	0.162691	0.744462	0.331873
490	N	0.143348	0.717483	0.331186
491	C	0.114615	0.723437	0.337123
492	N	0.105455	0.756825	0.342557
493	C	0.093744	0.697069	0.339855
494	C	0.112875	0.818371	0.344793
495	C	0.192413	0.737175	0.328733
496	H	0.198437	0.711372	0.327627
497	H	0.126438	0.839378	0.347781
498	H	0.073777	0.703848	0.351933
499	C	0.282689	0.715721	0.341302
500	N	0.253975	0.722332	0.337106
501	C	0.243943	0.75565	0.331488
502	N	0.263305	0.78261	0.330641
503	C	0.292062	0.776611	0.336318
504	N	0.30122	0.743199	0.341612
505	C	0.312962	0.802961	0.338893
506	C	0.293755	0.681666	0.343828
507	C	0.214208	0.76296	0.328641
508	H	0.208182	0.788766	0.327621
509	H	0.280274	0.660613	0.347215
510	H	0.332919	0.796065	0.350985
511	C	0.472048	0.605287	0.004184
512	C	0.442386	0.605618	0.007433
513	C	0.431813	0.574332	0.989771
514	N	0.455685	0.554854	0.980444
515	C	0.480774	0.57247	0.98847
516	C	0.009777	0.562064	0.978517
517	C	0.016936	0.526448	0.969869
518	N	8e-05	0.498359	0.979243
519	C	0.014484	0.967868	0.97324
520	C	0.041863	0.976933	0.957471
521	C	0.043789	0.512878	0.957235
522	C	0.004794	0.933368	0.983013
523	C	0.47493	0.925836	0.99033
524	N	0.451078	0.945417	0.981123
525	C	0.425989	0.927734	0.988999
526	C	0.434708	0.894984	0.005016
527	C	0.46437	0.894612	0.008217
528	C	0.397015	0.938037	0.978564
529	C	0.389898	0.973614	0.969457
530	N	0.406695	0.50174	0.978913
531	C	0.392286	0.532223	0.972787
532	C	0.364902	0.523128	0.957032
533	C	0.363003	0.987178	0.956936
534	C	0.401939	0.566717	0.982637
535	C	0.380946	0.594064	0.986303
536	C	0.355056	0.589627	0.677833
537	C	0.334202	0.616392	0.680981
538	C	0.339521	0.649315	0.994745
539	C	0.365315	0.654528	0.970784
540	C	0.385178	0.626994	0.965424
541	C	0.374106	0.913095	0.98091
542	C	0.36908	0.893559	0.686903
543	C	0.348444	0.866597	0.688161
544	C	0.329923	0.860527	0.984853
545	C	0.332547	0.882341	0.947226
546	C	0.355164	0.906993	0.944558
547	C	0.025764	0.905993	0.986773
548	C	0.021468	0.873036	0.966053
549	C	0.04132	0.845484	0.971493
550	C	0.067136	0.850679	0.995444
551	C	0.072488	0.883606	0.681586
552	C	0.051682	0.91042	0.678282
553	C	0.032703	0.586956	0.981099
554	C	0.051719	0.593161	0.944897
555	C	0.037625	0.606372	0.687186
556	C	0.05822	0.633374	0.688634
557	C	0.076813	0.639553	0.985465
558	C	0.074356	0.617771	0.947812
559	H	0.086893	0.622378	0.920371
560	H	0.048676	0.580456	0.915297
561	H	0.060353	0.647493	0.717342
562	H	0.025646	0.601607	0.71517
563	H	0.484404	0.626542	0.011764
564	H	0.43086	0.626583	0.018867
565	H	0.454809	0.532912	0.964406
566	H	0.451956	0.966988	0.964239
567	H	0.062444	0.525928	0.950171
568	H	0.058551	0.96058	0.949396
569	H	0.003748	0.868764	0.946368
570	H	0.037312	0.821988	0.956264
571	H	0.055415	0.933186	0.695285
572	H	0.090712	0.887671	0.70016
573	H	0.475898	0.873602	0.019573
574	H	0.422379	0.873638	0.012312
575	H	0.348119	0.539443	0.949256
576	H	0.344291	0.974128	0.950224
577	H	0.380954	0.898279	0.71502
578	H	0.34625	0.852389	0.716813
579	H	0.358257	0.919794	0.915017
580	H	0.319987	0.87794	0.919732
581	H	0.402865	0.631263	0.945699
582	H	0.36927	0.677998	0.955425
583	H	0.316027	0.612359	0.699651
584	H	0.351377	0.566881	0.694952
585	N	0.310841	0.833538	0.983092
586	N	0.085203	0.823035	0.998392
587	N	0.095859	0.666589	0.983888
588	N	0.321429	0.676938	0.997533
589	C	0.12396	0.784329	0.675424
590	N	0.152661	0.77776	0.670942
591	C	0.162691	0.744462	0.665205
592	N	0.143348	0.717482	0.66452
593	C	0.114615	0.72344	0.670456
594	N	0.105455	0.756825	0.67589
595	C	0.093745	0.697069	0.673188
596	C	0.112875	0.818371	0.678126
597	C	0.192413	0.737174	0.662068
598	H	0.198437	0.711372	0.660959
599	H	0.126438	0.839378	0.681114
600	H	0.073777	0.703848	0.685266
601	C	0.282691	0.715721	0.674635
602	N	0.253975	0.722331	0.670439
603	C	0.243942	0.75565	0.664823
604	N	0.263304	0.782609	0.663974
605	C	0.292061	0.776611	0.669651
606	N	0.30122	0.743198	0.674945
607	C	0.312961	0.80296	0.672226
608	C	0.293755	0.681665	0.677164
609	C	0.214208	0.762959	0.661974
610	H	0.208182	0.788766	0.660953
611	H	0.280275	0.660613	0.680551
612	H	0.332918	0.796067	0.684318
613	C	0.972048	0.105286	0.337519
614	C	0.942388	0.105618	0.340766
615	C	0.931812	0.074331	0.323104
616	N	0.955684	0.054855	0.313777
617	C	0.980773	0.072471	0.321803
618	C	0.509778	0.062065	0.31185
619	C	0.516936	0.026449	0.303202
620	N	0.500081	0.998359	0.312575
621	C	0.514483	0.467868	0.306574
622	C	0.541865	0.476932	0.290804
623	C	0.54379	0.012879	0.290568
624	C	0.504795	0.433367	0.316344
625	C	0.97493	0.425835	0.323661
626	N	0.951078	0.445416	0.314455
627	C	0.925991	0.427736	0.322332
628	C	0.93471	0.394982	0.338351
629	C	0.96437	0.394613	0.341552
630	C	0.897017	0.438037	0.311898
631	C	0.889899	0.473613	0.30279
632	N	0.906695	0.001739	0.312246
633	C	0.892288	0.032223	0.306122
634	C	0.864904	0.023128	0.290365
635	C	0.863003	0.48718	0.290269
636	C	0.901939	0.066718	0.315968
637	C	0.880948	0.094065	0.319637
638	C	0.855055	0.089627	0.011166
639	C	0.834201	0.116394	0.014314
640	C	0.839521	0.149315	0.328078
641	C	0.865314	0.154529	0.304119
642	C	0.885177	0.126994	0.298758
643	C	0.874106	0.413094	0.314243
644	C	0.869082	0.393558	0.020238
645	C	0.848444	0.366599	0.021495
646	C	0.829925	0.360529	0.318186
647	C	0.832547	0.38234	0.280559
648	C	0.855164	0.406992	0.277892
649	C	0.525765	0.405992	0.320105
650	C	0.521469	0.373035	0.299386
651	C	0.541321	0.345484	0.304825
652	C	0.567136	0.350681	0.328776
653	C	0.572488	0.383608	0.01492
654	C	0.551683	0.410419	0.011614
655	C	0.532704	0.086958	0.314431
656	C	0.55172	0.093162	0.278231
657	C	0.537625	0.106373	0.020519
658	C	0.558221	0.133373	0.021968
659	C	0.576813	0.139552	0.318798
660	C	0.574357	0.117771	0.281145
661	H	0.586894	0.122379	0.253704
662	H	0.548677	0.080456	0.248628
663	H	0.560352	0.147494	0.050676
664	H	0.525646	0.101607	0.048503
665	H	0.984406	0.126543	0.345099
666	H	0.93086	0.126583	0.352199
667	H	0.954808	0.032912	0.297739
668	H	0.951956	0.466987	0.297573
669	H	0.562445	0.025927	0.283504
670	H	0.558553	0.46058	0.282727
671	H	0.503748	0.368766	0.279702
672	H	0.537312	0.32199	0.289598
673	H	0.555416	0.433189	0.028618
674	H	0.590712	0.387674	0.033492
675	H	0.975899	0.373603	0.352905
676	H	0.922379	0.373639	0.345644
677	H	0.848121	0.039443	0.282588
678	H	0.84429	0.474128	0.283559
679	H	0.880956	0.398282	0.048352
680	H	0.846249	0.352388	0.050146
681	H	0.858257	0.419796	0.24835
682	H	0.819989	0.377942	0.253066
683	H	0.902865	0.131264	0.279031
684	H	0.86927	0.177998	0.288757
685	H	0.816027	0.112359	0.032982
686	H	0.851377	0.066882	0.028285
687	N	0.810843	0.33354	0.316426
688	N	0.585205	0.323037	0.331724
689	N	0.595861	0.166588	0.317221
690	N	0.821429	0.176939	0.330867
691	C	0.623959	0.284329	0.008757
692	N	0.65266	0.27776	0.004274
693	C	0.662691	0.244462	0.998538
694	N	0.643348	0.217482	0.997853
695	C	0.614615	0.223439	0.00379
696	N	0.605454	0.256826	0.009222
697	C	0.593745	0.19707	0.00652
698	C	0.612876	0.318371	0.011458
699	C	0.692415	0.237175	0.995401
700	H	0.698439	0.211372	0.994296
701	H	0.626438	0.33938	0.014446
702	H	0.573778	0.203848	0.0186
703	C	0.78269	0.215722	0.007969
704	N	0.753977	0.222331	0.003771
705	C	0.743942	0.255652	0.998156
706	N	0.763304	0.28261	0.997307
707	C	0.792063	0.27661	0.002983
708	N	0.801219	0.2432	0.008279
709	C	0.812963	0.30296	0.005558
710	C	0.793756	0.181666	0.010496
711	C	0.714208	0.26296	0.995307
712	H	0.708183	0.288767	0.994289
713	H	0.780275	0.160613	0.013883
714	H	0.832918	0.296067	0.017652
715	C	0.972049	0.105286	0.670852
716	C	0.942388	0.105617	0.674099
717	C	0.931814	0.074332	0.656438
718	N	0.955684	0.054855	0.647111
719	C	0.980775	0.072471	0.655137
720	C	0.509778	0.062065	0.645184
721	C	0.516936	0.026449	0.636536
722	N	0.50008	0.998358	0.64591
723	C	0.514485	0.467867	0.639907
724	C	0.541864	0.476932	0.624138
725	C	0.543789	0.012879	0.623902
726	C	0.504794	0.433367	0.649676
727	C	0.974931	0.425835	0.656993
728	N	0.951077	0.445418	0.64779
729	C	0.92599	0.427735	0.655666
730	C	0.934709	0.394982	0.671684
731	C	0.964369	0.394613	0.674885
732	C	0.897016	0.438039	0.645231
733	C	0.889899	0.473613	0.636124
734	N	0.906694	0.001739	0.64558
735	C	0.892287	0.032223	0.639454
736	C	0.864903	0.023128	0.623699
737	C	0.863002	0.48718	0.623603
738	C	0.90194	0.066718	0.6493
739	C	0.880948	0.094065	0.65297
740	C	0.855057	0.089627	0.3445
741	C	0.834201	0.116394	0.347648
742	C	0.83952	0.149315	0.661412
743	C	0.865314	0.154529	0.637451
744	C	0.885177	0.126994	0.632091
745	C	0.874105	0.413094	0.647577
746	C	0.869081	0.393558	0.35357
747	C	0.848443	0.366599	0.354828
748	C	0.829924	0.360528	0.65152
749	C	0.832546	0.38234	0.613893
750	C	0.855163	0.406992	0.611225
751	C	0.525764	0.405995	0.65344
752	C	0.521468	0.373035	0.63272
753	C	0.54132	0.345484	0.638157
754	C	0.567136	0.350681	0.662111
755	C	0.572489	0.383607	0.348253
756	C	0.551682	0.410419	0.344949
757	C	0.532704	0.086958	0.647763
758	C	0.55172	0.093162	0.611564
759	C	0.537624	0.106373	0.353853
760	C	0.55822	0.133373	0.355301
761	C	0.576814	0.139553	0.652132
762	C	0.574357	0.117771	0.614479
763	H	0.586894	0.122379	0.587038
764	H	0.548676	0.080456	0.58196
765	H	0.560354	0.147494	0.384009
766	H	0.525646	0.101607	0.381837
767	H	0.984406	0.126543	0.678432
768	H	0.93086	0.126584	0.685532
769	H	0.95481	0.032912	0.631073
770	H	0.951955	0.466987	0.630906
771	H	0.562444	0.025927	0.616838
772	H	0.558552	0.460579	0.616059
773	H	0.503748	0.368766	0.613035
774	H	0.537311	0.32199	0.622931
775	H	0.555416	0.433188	0.361952
776	H	0.590714	0.387673	0.366827
777	H	0.975898	0.373603	0.686241
778	H	0.922379	0.373639	0.678977
779	H	0.848121	0.039443	0.615923
780	H	0.844292	0.47413	0.616891
781	H	0.880955	0.398281	0.381687
782	H	0.846249	0.352388	0.38348
783	H	0.858256	0.419796	0.581684
784	H	0.819988	0.377942	0.586399
785	H	0.902866	0.131264	0.612363
786	H	0.869269	0.177998	0.622092
787	H	0.816028	0.112359	0.366318
788	H	0.851379	0.066882	0.361619
789	N	0.810843	0.333539	0.649759
790	N	0.585204	0.323036	0.665059
791	N	0.59586	0.166588	0.650555
792	N	0.821428	0.176939	0.6642
793	C	0.623961	0.284328	0.342091
794	N	0.652662	0.277762	0.337609
795	C	0.662692	0.244462	0.331873
796	N	0.643349	0.217483	0.331186
797	C	0.614614	0.223439	0.337123
798	N	0.605456	0.256826	0.342557
799	C	0.593745	0.19707	0.339855
800	C	0.612875	0.31837	0.344793
801	C	0.692414	0.237175	0.328733
802	H	0.698437	0.211372	0.327627
803	H	0.626437	0.339379	0.347781
804	H	0.573778	0.203847	0.351933
805	C	0.782689	0.215722	0.341302
806	N	0.753976	0.222332	0.337106
807	C	0.743943	0.255652	0.331488
808	N	0.763305	0.282611	0.330641
809	C	0.792062	0.27661	0.336318
810	N	0.801221	0.2432	0.341612
811	C	0.812962	0.302959	0.338893
812	C	0.793756	0.181666	0.343828
813	C	0.714209	0.262961	0.328641
814	H	0.708182	0.288768	0.327621
815	H	0.780274	0.160613	0.347215
816	H	0.83292	0.296066	0.350985
817	C	0.972048	0.105286	0.004184
818	C	0.942387	0.105617	0.007433
819	C	0.931813	0.074332	0.989771
820	N	0.955683	0.054855	0.980444
821	C	0.980775	0.072471	0.98847
822	C	0.509777	0.062065	0.978517
823	C	0.516937	0.026449	0.969869
824	N	0.500082	0.998358	0.979243
825	C	0.514484	0.467867	0.97324
826	C	0.541864	0.476932	0.957471
827	C	0.543789	0.012879	0.957235
828	C	0.504794	0.433369	0.983013
829	C	0.974931	0.425837	0.99033
830	N	0.951077	0.445418	0.981123
831	C	0.92599	0.427735	0.988999
832	C	0.934708	0.394982	0.005016
833	C	0.96437	0.394614	0.008217
834	C	0.897016	0.438039	0.978564
835	C	0.889898	0.473613	0.969457
836	N	0.906694	0.001739	0.978913
837	C	0.892287	0.032223	0.972787
838	C	0.864903	0.023128	0.957032
839	C	0.863004	0.487179	0.956936
840	C	0.90194	0.066718	0.982637
841	C	0.880947	0.094065	0.986303
842	C	0.855056	0.089627	0.677833
843	C	0.834203	0.116393	0.680981
844	C	0.839522	0.149315	0.994745
845	C	0.865315	0.154529	0.970784
846	C	0.885178	0.126994	0.965424
847	C	0.874107	0.413093	0.98091
848	C	0.869081	0.393558	0.686903
849	C	0.848443	0.366598	0.688161
850	C	0.829924	0.360528	0.984853
851	C	0.832548	0.382342	0.947226
852	C	0.855165	0.406992	0.944558
853	C	0.525764	0.405994	0.986773
854	C	0.521468	0.373035	0.966053
855	C	0.54132	0.345483	0.971493
856	C	0.567135	0.35068	0.995444
857	C	0.572489	0.383607	0.681586
858	C	0.551682	0.410421	0.678282
859	C	0.532703	0.086958	0.981099
860	C	0.551719	0.093162	0.944897
861	C	0.537626	0.106373	0.687186
862	C	0.55822	0.133373	0.688634
863	C	0.576814	0.139553	0.985465
864	C	0.574356	0.117771	0.947812
865	H	0.586893	0.122379	0.920371
866	H	0.548676	0.080456	0.915297
867	H	0.560353	0.147494	0.717342
868	H	0.525647	0.101607	0.71517
869	H	0.984405	0.126543	0.011764
870	H	0.930861	0.126584	0.018867
871	H	0.95481	0.032912	0.964406
872	H	0.951955	0.466987	0.964239
873	H	0.562444	0.025927	0.950171
874	H	0.558552	0.460582	0.949396
875	H	0.503749	0.368765	0.946368
876	H	0.537311	0.32199	0.956264
877	H	0.555415	0.433188	0.695285
878	H	0.590713	0.387673	0.70016
879	H	0.975899	0.373601	0.019573
880	H	0.92238	0.37364	0.012312
881	H	0.84812	0.039443	0.949256
882	H	0.844292	0.47413	0.950224
883	H	0.880955	0.398281	0.71502
884	H	0.84625	0.352388	0.716813
885	H	0.858258	0.419796	0.915017
886	H	0.819988	0.377941	0.919732
887	H	0.902866	0.131264	0.945699
888	H	0.869271	0.177998	0.955425
889	H	0.816028	0.112359	0.699651
890	H	0.851378	0.066882	0.694952
891	N	0.810842	0.333539	0.983092
892	N	0.585204	0.323036	0.998392
893	N	0.59586	0.166588	0.983888
894	N	0.82143	0.176939	0.997533
895	C	0.62396	0.284328	0.675424
896	N	0.652662	0.277762	0.670942
897	C	0.662692	0.244462	0.665205
898	N	0.643349	0.217483	0.66452
899	C	0.614616	0.223439	0.670456
900	N	0.605455	0.256826	0.67589
901	C	0.593744	0.19707	0.673188
902	C	0.612875	0.318373	0.678126
903	C	0.692413	0.237175	0.662068
904	H	0.698437	0.211372	0.660959
905	H	0.626439	0.339379	0.681114
906	H	0.573777	0.203847	0.685266
907	C	0.782691	0.215722	0.674635
908	N	0.753976	0.222332	0.670439
909	C	0.743943	0.255652	0.664823
910	N	0.763305	0.282611	0.663974
911	C	0.792062	0.27661	0.669651
912	N	0.80122	0.2432	0.674945
913	C	0.812962	0.302959	0.672226
914	C	0.793755	0.181666	0.677164
915	C	0.714208	0.262961	0.661974
916	H	0.708184	0.288767	0.660953
917	H	0.780274	0.160613	0.680551
918	H	0.832919	0.296066	0.684318
919	C	0.97205	0.605287	0.337519
920	C	0.942388	0.605617	0.340766
921	C	0.931814	0.57433	0.323104
922	N	0.955684	0.554855	0.313777
923	C	0.980775	0.572471	0.321803
924	C	0.509778	0.562064	0.31185
925	C	0.516936	0.526448	0.303202
926	N	0.500081	0.49836	0.312575
927	C	0.514485	0.967866	0.306574
928	C	0.541865	0.976931	0.290804
929	C	0.543789	0.512878	0.290568
930	C	0.504794	0.933369	0.316344
931	C	0.974931	0.925837	0.323661
932	N	0.951077	0.945417	0.314455
933	C	0.925991	0.927734	0.322332
934	C	0.93471	0.894983	0.338351
935	C	0.964369	0.894615	0.341552
936	C	0.897016	0.938038	0.311898
937	C	0.889899	0.973612	0.30279
938	N	0.906694	0.501738	0.312246
939	C	0.892287	0.532224	0.306122
940	C	0.864904	0.523128	0.290365
941	C	0.863002	0.987179	0.290269
942	C	0.90194	0.566718	0.315968
943	C	0.880948	0.594065	0.319637
944	C	0.855057	0.589627	0.011165
945	C	0.834201	0.616393	0.014314
946	C	0.83952	0.649313	0.328078
947	C	0.865314	0.654529	0.304119
948	C	0.885177	0.626994	0.298758
949	C	0.874105	0.913093	0.314243
950	C	0.869082	0.893557	0.020238
951	C	0.848443	0.866598	0.021495
952	C	0.829925	0.860527	0.318186
953	C	0.832546	0.882342	0.280559
954	C	0.855163	0.906991	0.277892
955	C	0.525764	0.905994	0.320105
956	C	0.521468	0.873037	0.299386
957	C	0.541321	0.845482	0.304825
958	C	0.567136	0.85068	0.328776
959	C	0.572489	0.883606	0.01492
960	C	0.551683	0.91042	0.011614
961	C	0.532704	0.586957	0.314431
962	C	0.55172	0.593162	0.278231
963	C	0.537624	0.606372	0.020519
964	C	0.558221	0.633372	0.021968
965	C	0.576814	0.639551	0.318798
966	C	0.574357	0.617771	0.281145
967	H	0.586894	0.622378	0.253704
968	H	0.548676	0.580456	0.248628
969	H	0.560354	0.647493	0.050676
970	H	0.525646	0.601605	0.048503
971	H	0.984406	0.626542	0.345099
972	H	0.93086	0.626582	0.352199
973	H	0.95481	0.532913	0.297739
974	H	0.951955	0.966986	0.297573
975	H	0.562444	0.525926	0.283504
976	H	0.558552	0.960581	0.282727
977	H	0.503748	0.868764	0.279702
978	H	0.537312	0.821989	0.289598
979	H	0.555416	0.933187	0.028618
980	H	0.590712	0.887672	0.033492
981	H	0.975898	0.873602	0.352905
982	H	0.922379	0.873638	0.345644
983	H	0.848121	0.539444	0.282588
984	H	0.844292	0.974129	0.283559
985	H	0.880956	0.89828	0.048352
986	H	0.846249	0.85239	0.050146
987	H	0.858256	0.919795	0.24835
988	H	0.819989	0.87794	0.253066
989	H	0.902864	0.631264	0.279031
990	H	0.869269	0.677996	0.288757
991	H	0.816028	0.61236	0.032982
992	H	0.851376	0.566882	0.028285
993	N	0.810843	0.833538	0.316426
994	N	0.585204	0.823035	0.331724
995	N	0.59586	0.666587	0.317221
996	N	0.821428	0.676939	0.330867
997	C	0.623961	0.784327	0.008757
998	N	0.652662	0.777761	0.004274
999	C	0.662691	0.744461	0.998538
1000	N	0.64335	0.717482	0.997853
1001	C	0.614614	0.723438	0.00379
1002	N	0.605456	0.756826	0.009222
1003	C	0.593745	0.697069	0.00652
1004	C	0.612875	0.818372	0.011458
1005	C	0.692414	0.737174	0.995401
1006	H	0.698438	0.711371	0.994296
1007	H	0.626437	0.839378	0.014446
1008	H	0.573778	0.703846	0.0186
1009	C	0.78269	0.715721	0.007969
1010	N	0.753976	0.722332	0.003771
1011	C	0.743944	0.755652	0.998156
1012	N	0.763304	0.782609	0.997307
1013	C	0.792062	0.776609	0.002983
1014	N	0.801219	0.743199	0.008279
1015	C	0.812962	0.802958	0.005558
1016	C	0.793756	0.681666	0.010496
1017	C	0.714207	0.762959	0.995307
1018	H	0.708183	0.788765	0.994289
1019	H	0.780274	0.660614	0.013883
1020	H	0.83292	0.796065	0.017652
1021	C	0.972049	0.605286	0.670852
1022	C	0.942387	0.605617	0.674099
1023	C	0.931813	0.57433	0.656438
1024	N	0.955683	0.554855	0.647111
1025	C	0.980775	0.57247	0.655137
1026	C	0.509777	0.562064	0.645184
1027	C	0.516937	0.526448	0.636536
1028	N	0.50008	0.49836	0.64591
1029	C	0.514485	0.967868	0.639907
1030	C	0.541864	0.976931	0.624138
1031	C	0.543789	0.512878	0.623902
1032	C	0.504794	0.933368	0.649676
1033	C	0.974931	0.925836	0.656993
1034	N	0.951077	0.945417	0.64779
1035	C	0.92599	0.927734	0.655666
1036	C	0.934709	0.894983	0.671684
1037	C	0.964371	0.894614	0.674885
1038	C	0.897016	0.938037	0.645231
1039	C	0.889898	0.973614	0.636124
1040	N	0.906694	0.501737	0.64558
1041	C	0.892287	0.532224	0.639454
1042	C	0.864903	0.523128	0.623699
1043	C	0.863004	0.987178	0.623603
1044	C	0.90194	0.566717	0.6493
1045	C	0.880947	0.594064	0.65297
1046	C	0.855057	0.589627	0.3445
1047	C	0.834203	0.616393	0.347648
1048	C	0.839522	0.649313	0.661412
1049	C	0.865316	0.654528	0.637451
1050	C	0.885178	0.626994	0.632091
1051	C	0.874107	0.913092	0.647577
1052	C	0.869081	0.893559	0.35357
1053	C	0.848443	0.866597	0.354828
1054	C	0.829924	0.860527	0.65152
1055	C	0.832546	0.882341	0.613893
1056	C	0.855165	0.906991	0.611225
1057	C	0.525764	0.905993	0.65344
1058	C	0.521468	0.873036	0.63272
1059	C	0.54132	0.845485	0.638157
1060	C	0.567135	0.850679	0.662111
1061	C	0.572489	0.883606	0.348253
1062	C	0.551682	0.91042	0.344949
1063	C	0.532703	0.586956	0.647763
1064	C	0.55172	0.593162	0.611564
1065	C	0.537626	0.606372	0.353853
1066	C	0.55822	0.633372	0.355301
1067	C	0.576814	0.639553	0.652132
1068	C	0.574356	0.617771	0.614479
1069	H	0.586893	0.622378	0.587038
1070	H	0.548676	0.580456	0.58196
1071	H	0.560354	0.647493	0.384009
1072	H	0.525645	0.601605	0.381837
1073	H	0.984405	0.626542	0.678432
1074	H	0.930859	0.626582	0.685532
1075	H	0.95481	0.532913	0.631073
1076	H	0.951955	0.966988	0.630906
1077	H	0.562444	0.525925	0.616838
1078	H	0.558552	0.96058	0.616059
1079	H	0.503749	0.868764	0.613035
1080	H	0.537311	0.821989	0.622931
1081	H	0.555415	0.933187	0.361952
1082	H	0.590714	0.887672	0.366827
1083	H	0.975898	0.873602	0.686241
1084	H	0.922378	0.873638	0.678977
1085	H	0.84812	0.539443	0.615923
1086	H	0.844292	0.974129	0.616891
1087	H	0.880955	0.89828	0.381687
1088	H	0.84625	0.852389	0.38348
1089	H	0.858258	0.919795	0.581684
1090	H	0.819988	0.87794	0.586399
1091	H	0.902866	0.631263	0.612363
1092	H	0.869271	0.677999	0.622092
1093	H	0.816028	0.61236	0.366314
1094	H	0.851378	0.566882	0.361619
1095	N	0.810842	0.833538	0.649759
1096	N	0.585204	0.823035	0.665059
1097	N	0.59586	0.666586	0.650555
1098	N	0.82143	0.676938	0.6642
1099	C	0.623961	0.784329	0.342091
1100	N	0.652662	0.777761	0.337609
1101	C	0.662692	0.744462	0.331873
1102	N	0.643349	0.717483	0.331186
1103	C	0.614614	0.723437	0.337123
1104	N	0.605455	0.756825	0.342557
1105	C	0.593744	0.697069	0.339855
1106	C	0.612875	0.818371	0.344793
1107	C	0.692413	0.737175	0.328733
1108	H	0.698437	0.711372	0.327627
1109	H	0.626439	0.839378	0.347781
1110	H	0.573778	0.703848	0.351933
1111	C	0.782691	0.715721	0.341302
1112	N	0.753976	0.722332	0.337106
1113	C	0.743943	0.75565	0.331488
1114	N	0.763305	0.78261	0.330641
1115	C	0.792062	0.776611	0.336318
1116	N	0.801221	0.743199	0.341612
1117	C	0.812962	0.802961	0.338893
1118	C	0.793755	0.681666	0.343828
1119	C	0.714208	0.76296	0.328641
1120	H	0.708184	0.788766	0.327621
1121	H	0.780274	0.660613	0.347215
1122	H	0.832919	0.796065	0.350985
1123	C	0.972048	0.605287	0.004184
1124	C	0.942388	0.605618	0.007433
1125	C	0.931813	0.574332	0.989771
1126	N	0.955685	0.554854	0.980444
1127	C	0.980774	0.57247	0.98847
1128	C	0.509777	0.562064	0.978517
1129	C	0.516937	0.526448	0.969869
1130	N	0.50008	0.498359	0.979243
1131	C	0.514484	0.967868	0.97324
1132	C	0.541864	0.976933	0.957471
1133	C	0.543788	0.512878	0.957235
1134	C	0.504796	0.933368	0.983013
1135	C	0.97493	0.925836	0.99033
1136	N	0.951079	0.945417	0.981123
1137	C	0.92599	0.927734	0.988999
1138	C	0.93471	0.894984	0.005016
1139	C	0.96437	0.894612	0.008217
1140	C	0.897015	0.938037	0.978564
1141	C	0.8899	0.973614	0.969457
1142	N	0.906696	0.50174	0.978913
1143	C	0.892288	0.532223	0.972787
1144	C	0.864905	0.523128	0.957032
1145	C	0.863003	0.987178	0.956936
1146	C	0.901939	0.566717	0.982637
1147	C	0.880947	0.594064	0.986303
1148	C	0.855056	0.589627	0.677833
1149	C	0.834202	0.616392	0.680981
1150	C	0.839522	0.649315	0.994745
1151	C	0.865315	0.654528	0.970784
1152	C	0.885178	0.626994	0.965424
1153	C	0.874106	0.913095	0.98091
1154	C	0.869081	0.893559	0.686903
1155	C	0.848444	0.866597	0.688161
1156	C	0.829924	0.860527	0.984853
1157	C	0.832547	0.882341	0.947226
1158	C	0.855164	0.906993	0.944558
1159	C	0.525765	0.905993	0.986773
1160	C	0.52147	0.873036	0.966053
1161	C	0.541322	0.845484	0.971493
1162	C	0.567137	0.850679	0.995444
1163	C	0.572488	0.883606	0.681586
1164	C	0.551682	0.91042	0.678282
1165	C	0.532705	0.586956	0.981099
1166	C	0.551719	0.593161	0.944897
1167	C	0.537626	0.606372	0.687186
1168	C	0.55822	0.633374	0.688634
1169	C	0.576813	0.639553	0.985465
1170	C	0.574356	0.617771	0.947812
1171	H	0.586893	0.622378	0.920371
1172	H	0.548675	0.580456	0.915297
1173	H	0.560353	0.647493	0.717342
1174	H	0.525647	0.601607	0.71517
1175	H	0.984404	0.626542	0.011764
1176	H	0.93086	0.626583	0.018867
1177	H	0.954809	0.532912	0.964406
1178	H	0.951956	0.966988	0.964239
1179	H	0.562443	0.525928	0.950171
1180	H	0.558551	0.96058	0.949396
1181	H	0.503749	0.868764	0.946368
1182	H	0.537313	0.821988	0.956264
1183	H	0.555415	0.933186	0.695285
1184	H	0.590713	0.887671	0.70016
1185	H	0.975899	0.873602	0.019573
1186	H	0.922379	0.873638	0.012312
1187	H	0.84812	0.539443	0.949256
1188	H	0.844291	0.974128	0.950224
1189	H	0.880955	0.898279	0.71502
1190	H	0.84625	0.852389	0.716813
1191	H	0.858257	0.919794	0.915017
1192	H	0.819988	0.87794	0.919732
1193	H	0.902865	0.631263	0.945699
1194	H	0.869271	0.677998	0.955425
1195	H	0.816027	0.612359	0.699651
1196	H	0.851378	0.566881	0.694952
1197	N	0.810842	0.833538	0.983092
1198	N	0.585203	0.823035	0.998392
1199	N	0.595859	0.666589	0.983888
1200	N	0.821429	0.676938	0.997533
1201	C	0.62396	0.784329	0.675424
1202	N	0.652661	0.77776	0.670942
1203	C	0.662691	0.744462	0.665205
1204	N	0.643348	0.717482	0.66452
1205	C	0.614616	0.72344	0.670456
1206	N	0.605455	0.756825	0.67589
1207	C	0.593746	0.697069	0.673188
1208	C	0.612876	0.818371	0.678126
1209	C	0.692413	0.737174	0.662068
1210	H	0.698439	0.711372	0.660959
1211	H	0.626438	0.839378	0.681114
1212	H	0.573777	0.703848	0.685266
1213	C	0.782691	0.715721	0.674635
1214	N	0.753975	0.722331	0.670439
1215	C	0.743942	0.75565	0.664823
1216	N	0.763305	0.782609	0.663974
1217	C	0.792061	0.776611	0.669651
1218	N	0.80122	0.743198	0.674945
1219	C	0.812961	0.80296	0.672226
1220	C	0.793755	0.681665	0.677164
1221	C	0.714208	0.762959	0.661974
1222	H	0.708183	0.788766	0.660953
1223	H	0.780276	0.660613	0.680551
1224	H	0.832919	0.796067	0.684318
