data_C504H216N144O144_2018-02-15_10:36:45
#******************************************
#
# CIF file created by Zeo++
# Zeo++ is an open source package to
# analyze microporous materials
#
#*******************************************

_cell_length_a		44.0633   
_cell_length_b		44.0633   
_cell_length_c		29.7472   
_cell_angle_alpha		90   
_cell_angle_beta		90   
_cell_angle_gamma		120   

_symmetry_space_group_name_H-M		'P1'
_symmetry_Int_Tables_number		1
_symmetry_cell_setting		Monoclinic

loop_
_symmetry_equiv_pos_as_xyz
'+x,+y,+z'

loop_
_atom_site_label
_atom_site_type_symbol
_atom_site_fract_x
_atom_site_fract_y
_atom_site_fract_z
1	C	0.025772	0.262776	0.006514
2	C	0.044686	0.270569	0.047568
3	C	0.081853	0.289351	0.046666
4	C	0.100398	0.300611	0.005734
5	C	0.081381	0.292728	0.298496
6	C	0.044502	0.273902	0.2989
7	H	0.095401	0.294838	0.07634
8	H	0.09422	0.300535	0.268335
9	H	0.031377	0.268564	0.268919
10	N	0.02608	0.258896	0.088598
11	O	0.032813	0.284159	0.114239
12	C	0.025772	0.262776	0.339847
13	C	0.044686	0.270569	0.3809
14	C	0.081853	0.289351	0.379999
15	C	0.100398	0.300611	0.339067
16	C	0.081381	0.292728	0.631831
17	C	0.044502	0.273902	0.632231
18	H	0.095401	0.294838	0.409672
19	H	0.09422	0.300535	0.601667
20	H	0.031377	0.268564	0.602252
21	N	0.02608	0.258896	0.421932
22	O	0.032813	0.284159	0.447572
23	C	0.025772	0.262776	0.67318
24	C	0.044686	0.270569	0.714232
25	C	0.081853	0.289351	0.713331
26	C	0.100398	0.300611	0.6724
27	C	0.081381	0.292728	0.965164
28	C	0.044502	0.273902	0.965567
29	H	0.095401	0.294838	0.743008
30	H	0.09422	0.300535	0.935003
31	H	0.031377	0.268564	0.935584
32	N	0.02608	0.258896	0.755265
33	O	0.032813	0.284159	0.780904
34	C	0.02577	0.762774	0.006514
35	C	0.044685	0.77057	0.047568
36	C	0.081852	0.789351	0.046666
37	C	0.100397	0.800609	0.005734
38	C	0.081379	0.792727	0.298496
39	C	0.044501	0.773901	0.2989
40	H	0.095401	0.794839	0.076341
41	H	0.094217	0.800533	0.268335
42	H	0.031378	0.768565	0.268919
43	N	0.02608	0.758895	0.088598
44	O	0.032814	0.78416	0.114239
45	C	0.02577	0.762774	0.339847
46	C	0.044685	0.77057	0.3809
47	C	0.081852	0.789351	0.379999
48	C	0.100397	0.800609	0.339067
49	C	0.081379	0.792727	0.631831
50	C	0.044501	0.773901	0.632231
51	H	0.095401	0.794839	0.409672
52	H	0.094217	0.800533	0.601667
53	H	0.031378	0.768565	0.602252
54	N	0.02608	0.758895	0.421932
55	O	0.032814	0.78416	0.447572
56	C	0.02577	0.762774	0.67318
57	C	0.044685	0.77057	0.714232
58	C	0.081852	0.789351	0.713331
59	C	0.100397	0.800609	0.6724
60	C	0.081379	0.792727	0.965164
61	C	0.044501	0.773901	0.965567
62	H	0.095401	0.794839	0.743008
63	H	0.094217	0.800533	0.935003
64	H	0.031378	0.768565	0.935584
65	N	0.02608	0.758895	0.755265
66	O	0.032814	0.78416	0.780907
67	O	0.033225	0.238161	0.108696
68	O	0.033225	0.238161	0.442028
69	O	0.033225	0.238161	0.775361
70	O	0.033225	0.738162	0.108696
71	O	0.033225	0.738162	0.442028
72	O	0.033225	0.738162	0.775361
73	N	0.154965	0.355008	0.005479
74	C	0.137295	0.319382	0.005422
75	N	0.155615	0.302081	0.00548
76	N	0.154965	0.355008	0.338812
77	C	0.137295	0.319382	0.338755
78	N	0.155615	0.302081	0.338812
79	N	0.154965	0.355008	0.672144
80	C	0.137295	0.319382	0.672087
81	N	0.155615	0.302081	0.672148
82	N	0.154964	0.855009	0.005479
83	C	0.137296	0.819383	0.005422
84	N	0.155614	0.802082	0.00548
85	N	0.154964	0.855009	0.338812
86	C	0.137296	0.819383	0.338755
87	N	0.155614	0.802082	0.338812
88	N	0.154964	0.855009	0.672144
89	C	0.137296	0.819383	0.672087
90	N	0.155614	0.802082	0.672148
91	C	0.190586	0.373329	0.005422
92	C	0.19124	0.320037	0.005422
93	O	0.193119	0.529912	0.335058
94	C	0.190586	0.373329	0.338755
95	C	0.19124	0.320037	0.338755
96	O	0.193119	0.529912	0.668393
97	C	0.190586	0.373329	0.672087
98	C	0.19124	0.320037	0.672087
99	O	0.193119	0.529912	0.001725
100	C	0.190585	0.873327	0.005422
101	C	0.19124	0.820038	0.005422
102	O	0.19312	0.029913	0.335058
103	C	0.190585	0.873327	0.338755
104	C	0.19124	0.820038	0.338755
105	O	0.19312	0.029913	0.668393
106	C	0.190585	0.873327	0.672087
107	C	0.19124	0.820038	0.672087
108	O	0.19312	0.029913	0.001725
109	N	0.208542	0.355658	0.005479
110	C	0.321298	0.134744	0.005588
111	N	0.356966	0.153022	0.005587
112	C	0.375879	0.188679	0.005588
113	N	0.357602	0.206069	0.005587
114	C	0.321945	0.189326	0.005588
115	N	0.304556	0.153658	0.005587
116	C	0.303581	0.208379	0.005545
117	C	0.268115	0.19252	0.019224
118	C	0.250165	0.21144	0.019659
119	C	0.266852	0.246777	0.005588
120	C	0.302285	0.263171	0.324636
121	C	0.320169	0.2439	0.325161
122	H	0.345708	0.256193	0.314646
123	C	0.247848	0.265121	0.006514
124	C	0.240053	0.27624	0.047568
125	C	0.221271	0.294626	0.046666
126	C	0.210014	0.301914	0.005734
127	C	0.217897	0.290779	0.298496
128	C	0.236723	0.272726	0.298899
129	H	0.215782	0.302684	0.076341
130	H	0.210092	0.295813	0.268335
131	H	0.255003	0.167022	0.029882
132	H	0.242062	0.26494	0.268919
133	H	0.22459	0.199047	0.030104
134	N	0.319272	0.29863	0.310672
135	N	0.251725	0.269306	0.088598
136	O	0.22646	0.250776	0.114238
137	O	0.329302	0.301741	0.270533
138	O	0.345291	0.317503	0.335058
139	O	0.272459	0.297186	0.108698
140	C	0.302244	0.097327	0.005545
141	C	0.318104	0.07772	0.019224
142	C	0.299185	0.04085	0.019659
143	C	0.263848	0.022201	0.005588
144	C	0.247453	0.041239	0.324636
145	C	0.266724	0.078394	0.325161
146	H	0.254431	0.09164	0.314646
147	C	0.245501	0.484851	0.006514
148	C	0.234382	0.465936	0.047567
149	C	0.215998	0.428772	0.046666
150	C	0.208711	0.410226	0.005734
151	C	0.219845	0.429243	0.298496
152	C	0.237898	0.466122	0.298899
153	H	0.207937	0.415223	0.07634
154	H	0.214813	0.416405	0.268335
155	H	0.343601	0.090106	0.029882
156	H	0.245684	0.479246	0.268919
157	H	0.311576	0.027668	0.030104
158	N	0.211994	0.022767	0.310672
159	N	0.241315	0.484542	0.088597
160	O	0.259846	0.47781	0.114238
161	O	0.208884	0.029687	0.270533
162	O	0.213436	0.977399	0.108696
163	C	0.413296	0.207043	0.005545
164	C	0.432904	0.242509	0.019224
165	C	0.469775	0.260459	0.019659
166	C	0.488422	0.243771	0.005588
167	C	0.469384	0.208338	0.324636
168	C	0.432229	0.190454	0.325161
169	H	0.418985	0.164916	0.314646
170	H	0.420518	0.25562	0.029882
171	H	0.482954	0.286033	0.030104
172	N	0.487857	0.191351	0.310672
173	O	0.480938	0.181323	0.270533
174	O	0.980711	0.165333	0.335058
175	O	0.533225	0.238161	0.108696
176	N	0.208542	0.355658	0.338812
177	C	0.321298	0.134744	0.338919
178	N	0.356966	0.153022	0.338919
179	C	0.375879	0.188679	0.338919
180	N	0.357602	0.206069	0.338919
181	C	0.321945	0.189326	0.338919
182	N	0.304556	0.153658	0.338919
183	C	0.303581	0.208379	0.338879
184	C	0.268115	0.19252	0.352558
185	C	0.250165	0.21144	0.352991
186	C	0.266852	0.246777	0.338923
187	C	0.302285	0.263171	0.657968
188	C	0.320169	0.2439	0.658493
189	H	0.345708	0.256193	0.647981
190	C	0.247848	0.265121	0.339847
191	C	0.240053	0.27624	0.3809
192	C	0.221271	0.294626	0.379999
193	C	0.210014	0.301914	0.339067
194	C	0.217897	0.290779	0.631828
195	C	0.236723	0.272726	0.632231
196	H	0.215782	0.302684	0.409672
197	H	0.210092	0.295813	0.601667
198	H	0.255003	0.167022	0.363214
199	H	0.242062	0.26494	0.602252
200	H	0.22459	0.199047	0.363436
201	N	0.319272	0.29863	0.644004
202	N	0.251725	0.269306	0.421932
203	O	0.22646	0.250776	0.447572
204	O	0.329302	0.301741	0.603866
205	O	0.345291	0.317503	0.668393
206	O	0.272459	0.297186	0.442032
207	C	0.302244	0.097327	0.338879
208	C	0.318104	0.07772	0.352558
209	C	0.299185	0.04085	0.352991
210	C	0.263848	0.022201	0.338919
211	C	0.247453	0.041239	0.657968
212	C	0.266724	0.078394	0.658493
213	H	0.254431	0.09164	0.647981
214	C	0.245501	0.484851	0.339847
215	C	0.234382	0.465936	0.3809
216	C	0.215998	0.428772	0.379999
217	C	0.208711	0.410226	0.339067
218	C	0.219845	0.429243	0.631828
219	C	0.237898	0.466122	0.632231
220	H	0.207937	0.415223	0.409672
221	H	0.214813	0.416405	0.601667
222	H	0.343601	0.090106	0.363214
223	H	0.245684	0.479246	0.602252
224	H	0.311576	0.027668	0.363436
225	N	0.211994	0.022767	0.644004
226	N	0.241315	0.484542	0.421929
227	O	0.259846	0.47781	0.447572
228	O	0.208884	0.029687	0.603866
229	O	0.213436	0.977399	0.442028
230	C	0.413296	0.207043	0.338879
231	C	0.432904	0.242509	0.352558
232	C	0.469775	0.260459	0.352991
233	C	0.488422	0.243771	0.338923
234	C	0.469384	0.208338	0.657968
235	C	0.432229	0.190454	0.658493
236	H	0.418985	0.164916	0.647981
237	H	0.420518	0.25562	0.363214
238	H	0.482954	0.286033	0.363436
239	N	0.487857	0.191351	0.644004
240	O	0.480938	0.181323	0.603866
241	O	0.980711	0.165333	0.668393
242	O	0.533225	0.238161	0.442028
243	N	0.208542	0.355658	0.672144
244	C	0.321298	0.134744	0.672255
245	N	0.356966	0.153022	0.672255
246	C	0.375879	0.188679	0.672255
247	N	0.357602	0.206069	0.672255
248	C	0.321945	0.189326	0.672255
249	N	0.304556	0.153658	0.672255
250	C	0.303581	0.208379	0.672211
251	C	0.268115	0.19252	0.68589
252	C	0.250165	0.21144	0.686327
253	C	0.266852	0.246777	0.672255
254	C	0.302285	0.263171	0.991304
255	C	0.320169	0.2439	0.991828
256	H	0.345708	0.256193	0.981313
257	C	0.247848	0.265121	0.67318
258	C	0.240053	0.27624	0.714232
259	C	0.221271	0.294626	0.713331
260	C	0.210014	0.301914	0.6724
261	C	0.217897	0.290779	0.965164
262	C	0.236723	0.272726	0.965567
263	H	0.215782	0.302684	0.743008
264	H	0.210092	0.295813	0.935003
265	H	0.255003	0.167022	0.696547
266	H	0.242062	0.26494	0.935584
267	H	0.22459	0.199047	0.696772
268	N	0.319272	0.29863	0.97734
269	N	0.251725	0.269306	0.755265
270	O	0.22646	0.250776	0.780904
271	O	0.329302	0.301741	0.937198
272	O	0.345291	0.317503	0.001725
273	O	0.272459	0.297186	0.775364
274	C	0.302244	0.097327	0.672211
275	C	0.318104	0.07772	0.68589
276	C	0.299185	0.04085	0.686324
277	C	0.263848	0.022201	0.672255
278	C	0.247453	0.041239	0.991304
279	C	0.266724	0.078394	0.991828
280	H	0.254431	0.09164	0.981313
281	C	0.245501	0.484851	0.67318
282	C	0.234382	0.465936	0.714232
283	C	0.215998	0.428772	0.713331
284	C	0.208711	0.410226	0.6724
285	C	0.219845	0.429243	0.965164
286	C	0.237898	0.466122	0.965567
287	H	0.207937	0.415223	0.743005
288	H	0.214813	0.416405	0.935003
289	H	0.343601	0.090106	0.696547
290	H	0.245684	0.479246	0.935584
291	H	0.311576	0.027668	0.696768
292	N	0.211994	0.022767	0.97734
293	N	0.241315	0.484542	0.755265
294	O	0.259846	0.47781	0.780904
295	O	0.208884	0.029687	0.937198
296	O	0.213436	0.977399	0.775364
297	C	0.413296	0.207043	0.672211
298	C	0.432904	0.242509	0.68589
299	C	0.469775	0.260459	0.686327
300	C	0.488422	0.243771	0.672255
301	C	0.469384	0.208338	0.991304
302	C	0.432229	0.190454	0.991828
303	H	0.418985	0.164916	0.981313
304	H	0.420518	0.25562	0.696547
305	H	0.482954	0.286033	0.696772
306	N	0.487857	0.191351	0.97734
307	O	0.480938	0.181323	0.937198
308	O	0.980711	0.165333	0.001725
309	O	0.533225	0.238161	0.775361
310	N	0.208542	0.855659	0.005479
311	C	0.321297	0.634744	0.005588
312	N	0.356966	0.653023	0.005587
313	C	0.375878	0.688678	0.005588
314	N	0.357602	0.70607	0.005587
315	C	0.321944	0.689325	0.005588
316	N	0.304554	0.653657	0.005587
317	C	0.30358	0.708379	0.005545
318	C	0.268114	0.69252	0.019224
319	C	0.250164	0.71144	0.019659
320	C	0.266853	0.746778	0.005588
321	C	0.302285	0.763172	0.324636
322	C	0.320169	0.743901	0.325161
323	H	0.345708	0.756194	0.314646
324	C	0.247848	0.765122	0.006514
325	C	0.240052	0.776241	0.047568
326	C	0.221269	0.794624	0.046666
327	C	0.210014	0.801914	0.005734
328	C	0.217897	0.79078	0.298496
329	C	0.236723	0.772727	0.298899
330	H	0.215782	0.802685	0.076341
331	H	0.210092	0.795814	0.268335
332	H	0.255003	0.667022	0.029882
333	H	0.242062	0.764941	0.268919
334	H	0.224589	0.699047	0.030104
335	N	0.319272	0.798631	0.310672
336	N	0.251724	0.769307	0.088598
337	O	0.226459	0.750774	0.114238
338	O	0.3293	0.801739	0.270533
339	O	0.345291	0.817504	0.335058
340	O	0.272458	0.797184	0.108698
341	C	0.302245	0.597328	0.005545
342	C	0.318104	0.577721	0.019224
343	C	0.299184	0.54085	0.019659
344	C	0.263848	0.522202	0.005588
345	C	0.247453	0.54124	0.324636
346	C	0.266723	0.578395	0.325161
347	H	0.25443	0.591639	0.314646
348	C	0.245501	0.984852	0.006514
349	C	0.234382	0.965937	0.047567
350	C	0.215996	0.92877	0.046666
351	C	0.20871	0.910227	0.005734
352	C	0.219846	0.929244	0.298496
353	C	0.237897	0.966123	0.298899
354	H	0.207936	0.915224	0.07634
355	H	0.214812	0.916404	0.268335
356	H	0.343601	0.590106	0.029882
357	H	0.245685	0.979247	0.268919
358	H	0.311577	0.527669	0.030104
359	N	0.211993	0.522768	0.310672
360	N	0.241316	0.984543	0.088597
361	O	0.259845	0.977811	0.114238
362	O	0.208884	0.529686	0.270533
363	O	0.213436	0.477399	0.108697
364	C	0.413296	0.707043	0.005545
365	C	0.432903	0.742509	0.019224
366	C	0.469774	0.76046	0.019659
367	C	0.488423	0.743772	0.005588
368	C	0.469383	0.708337	0.324636
369	C	0.432229	0.690455	0.325161
370	H	0.418983	0.664915	0.314646
371	H	0.420517	0.75562	0.029882
372	H	0.482955	0.786034	0.030104
373	N	0.487856	0.691351	0.310672
374	O	0.480937	0.681322	0.270533
375	O	0.98071	0.665331	0.335058
376	O	0.533225	0.738162	0.108696
377	N	0.208542	0.855659	0.338812
378	C	0.321297	0.634744	0.338919
379	N	0.356966	0.653023	0.338919
380	C	0.375878	0.688678	0.338919
381	N	0.357602	0.70607	0.338919
382	C	0.321944	0.689325	0.338919
383	N	0.304554	0.653657	0.338919
384	C	0.30358	0.708379	0.338879
385	C	0.268114	0.69252	0.352558
386	C	0.250164	0.71144	0.352991
387	C	0.266853	0.746778	0.338923
388	C	0.302285	0.763172	0.657968
389	C	0.320169	0.743901	0.658493
390	H	0.345708	0.756194	0.647981
391	C	0.247848	0.765122	0.339847
392	C	0.240052	0.776241	0.3809
393	C	0.221269	0.794624	0.379999
394	C	0.210014	0.801914	0.339067
395	C	0.217897	0.79078	0.631828
396	C	0.236723	0.772727	0.632231
397	H	0.215782	0.802685	0.409672
398	H	0.210092	0.795814	0.601667
399	H	0.255003	0.667022	0.363214
400	H	0.242062	0.764941	0.602252
401	H	0.224589	0.699047	0.363436
402	N	0.319272	0.798631	0.644004
403	N	0.251724	0.769307	0.421932
404	O	0.226459	0.750774	0.447572
405	O	0.3293	0.801739	0.603866
406	O	0.345291	0.817504	0.668393
407	O	0.272458	0.797184	0.442032
408	C	0.302245	0.597328	0.338879
409	C	0.318104	0.577721	0.352558
410	C	0.299184	0.54085	0.352991
411	C	0.263848	0.522202	0.338919
412	C	0.247453	0.54124	0.657968
413	C	0.266723	0.578395	0.658493
414	H	0.25443	0.591639	0.647981
415	C	0.245501	0.984852	0.339847
416	C	0.234382	0.965937	0.3809
417	C	0.215996	0.92877	0.379999
418	C	0.20871	0.910227	0.339067
419	C	0.219846	0.929244	0.631828
420	C	0.237897	0.966123	0.632231
421	H	0.207936	0.915224	0.409672
422	H	0.214812	0.916404	0.601667
423	H	0.343601	0.590106	0.363214
424	H	0.245685	0.979247	0.602252
425	H	0.311577	0.527669	0.363436
426	N	0.211993	0.522768	0.644004
427	N	0.241316	0.984543	0.421929
428	O	0.259845	0.977811	0.447572
429	O	0.208884	0.529686	0.603866
430	O	0.213436	0.477399	0.442028
431	C	0.413296	0.707043	0.338879
432	C	0.432903	0.742509	0.352558
433	C	0.469774	0.76046	0.352991
434	C	0.488423	0.743772	0.338923
435	C	0.469383	0.708337	0.657968
436	C	0.432229	0.690455	0.658493
437	H	0.418983	0.664915	0.647981
438	H	0.420517	0.75562	0.363214
439	H	0.482955	0.786034	0.363436
440	N	0.487856	0.691351	0.644004
441	O	0.480937	0.681322	0.603866
442	O	0.98071	0.665331	0.668393
443	O	0.533225	0.738162	0.442028
444	N	0.208542	0.855659	0.672144
445	C	0.321297	0.634744	0.672255
446	N	0.356966	0.653023	0.672255
447	C	0.375878	0.688678	0.672255
448	N	0.357602	0.70607	0.672255
449	C	0.321944	0.689325	0.672255
450	N	0.304554	0.653657	0.672255
451	C	0.30358	0.708379	0.672211
452	C	0.268114	0.69252	0.68589
453	C	0.250164	0.71144	0.686327
454	C	0.266853	0.746778	0.672255
455	C	0.302285	0.763172	0.991304
456	C	0.320169	0.743901	0.991828
457	H	0.345708	0.756194	0.981313
458	C	0.247848	0.765122	0.67318
459	C	0.240052	0.776241	0.714232
460	C	0.221269	0.794624	0.713331
461	C	0.210014	0.801914	0.6724
462	C	0.217897	0.79078	0.965164
463	C	0.236723	0.772727	0.965567
464	H	0.215782	0.802685	0.743008
465	H	0.210092	0.795814	0.935003
466	H	0.255003	0.667022	0.696547
467	H	0.242062	0.764941	0.935584
468	H	0.224589	0.699047	0.696772
469	N	0.319272	0.798631	0.97734
470	N	0.251724	0.769307	0.755265
471	O	0.226459	0.750774	0.780904
472	O	0.3293	0.801739	0.937198
473	O	0.345291	0.817504	0.001725
474	O	0.272458	0.797184	0.775364
475	C	0.302245	0.597328	0.672211
476	C	0.318104	0.577721	0.68589
477	C	0.299184	0.54085	0.686324
478	C	0.263848	0.522202	0.672255
479	C	0.247453	0.54124	0.991304
480	C	0.266723	0.578395	0.991828
481	H	0.25443	0.591639	0.981313
482	C	0.245501	0.984852	0.67318
483	C	0.234382	0.965937	0.714232
484	C	0.215996	0.92877	0.713331
485	C	0.20871	0.910227	0.6724
486	C	0.219846	0.929244	0.965164
487	C	0.237897	0.966123	0.965567
488	H	0.207936	0.915224	0.743005
489	H	0.214812	0.916404	0.934999
490	H	0.343601	0.590106	0.696547
491	H	0.245685	0.979247	0.935584
492	H	0.311577	0.527669	0.696768
493	N	0.211993	0.522768	0.97734
494	N	0.241316	0.984543	0.755265
495	O	0.259845	0.977811	0.780904
496	O	0.208884	0.529686	0.937198
497	O	0.213436	0.477399	0.775364
498	C	0.413296	0.707043	0.672211
499	C	0.432903	0.742509	0.68589
500	C	0.469774	0.76046	0.686327
501	C	0.488423	0.743772	0.672255
502	C	0.469383	0.708337	0.991304
503	C	0.432229	0.690455	0.991828
504	H	0.418983	0.664915	0.981313
505	H	0.420517	0.75562	0.696547
506	H	0.482955	0.786034	0.696772
507	N	0.487856	0.691351	0.97734
508	O	0.480937	0.681322	0.937198
509	O	0.98071	0.665331	0.001725
510	O	0.533225	0.738162	0.775361
511	C	0.690587	0.373329	0.005422
512	N	0.654965	0.355008	0.005479
513	C	0.637294	0.319382	0.005422
514	N	0.655614	0.302081	0.00548
515	C	0.69124	0.320037	0.005422
516	N	0.708543	0.355658	0.005479
517	C	0.821299	0.134744	0.005588
518	N	0.856965	0.153022	0.005587
519	C	0.875878	0.188679	0.005588
520	N	0.857601	0.206069	0.005587
521	C	0.821946	0.189326	0.005588
522	N	0.804554	0.153658	0.005587
523	C	0.803581	0.208379	0.005545
524	C	0.768114	0.19252	0.019224
525	C	0.750165	0.21144	0.019659
526	C	0.766853	0.246777	0.005588
527	C	0.802286	0.263171	0.324636
528	C	0.82017	0.2439	0.325161
529	H	0.845707	0.256193	0.314646
530	C	0.747848	0.265121	0.006514
531	C	0.740051	0.27624	0.047568
532	C	0.721271	0.294626	0.046666
533	C	0.710013	0.301914	0.005734
534	C	0.717897	0.290779	0.298496
535	C	0.736724	0.272726	0.298899
536	H	0.715782	0.302684	0.076341
537	H	0.710093	0.295813	0.268335
538	H	0.755004	0.167022	0.029882
539	H	0.742061	0.26494	0.268919
540	H	0.72459	0.199047	0.030104
541	N	0.819274	0.29863	0.310672
542	N	0.751724	0.269306	0.088598
543	O	0.726461	0.250776	0.114238
544	O	0.829301	0.301741	0.270533
545	O	0.845291	0.317503	0.335058
546	O	0.772459	0.297186	0.108698
547	C	0.802245	0.097327	0.005545
548	C	0.818105	0.07772	0.019224
549	C	0.799184	0.04085	0.019659
550	C	0.763847	0.022201	0.005588
551	C	0.747454	0.041239	0.324636
552	C	0.766723	0.078394	0.325161
553	H	0.75443	0.09164	0.314646
554	C	0.745501	0.484851	0.006514
555	C	0.73438	0.465936	0.047567
556	C	0.715998	0.428772	0.046666
557	C	0.708711	0.410226	0.005734
558	C	0.719844	0.429243	0.298496
559	C	0.737898	0.466122	0.298899
560	H	0.707937	0.415223	0.07634
561	H	0.714812	0.416405	0.268335
562	H	0.843602	0.090106	0.029882
563	H	0.745683	0.479246	0.268919
564	H	0.811577	0.027668	0.030104
565	N	0.711994	0.022767	0.310672
566	N	0.741314	0.484542	0.088597
567	O	0.759846	0.47781	0.114238
568	O	0.708883	0.029687	0.270533
569	O	0.693119	0.529912	0.335058
570	O	0.713436	0.977399	0.108696
571	C	0.913297	0.207043	0.005545
572	C	0.932903	0.242509	0.019224
573	C	0.969774	0.260459	0.019659
574	C	0.988423	0.243771	0.005588
575	C	0.969385	0.208338	0.324636
576	C	0.93223	0.190454	0.325161
577	H	0.918984	0.164916	0.314646
578	C	0.525772	0.262776	0.006514
579	C	0.544686	0.270569	0.047568
580	C	0.581853	0.289351	0.046666
581	C	0.600399	0.300611	0.005734
582	C	0.581381	0.292728	0.298496
583	C	0.544501	0.273902	0.2989
584	H	0.595401	0.294838	0.07634
585	H	0.594219	0.300535	0.268335
586	H	0.920517	0.25562	0.029882
587	H	0.531377	0.268564	0.268919
588	H	0.982956	0.286033	0.030104
589	N	0.987856	0.191351	0.310672
590	N	0.526079	0.258896	0.088598
591	O	0.532813	0.284159	0.114239
592	O	0.980937	0.181323	0.270533
593	O	0.480712	0.165333	0.335058
594	C	0.690587	0.373329	0.338755
595	N	0.654965	0.355008	0.338812
596	C	0.637294	0.319382	0.338755
597	N	0.655614	0.302081	0.338812
598	C	0.69124	0.320037	0.338755
599	N	0.708543	0.355658	0.338812
600	C	0.821299	0.134744	0.338919
601	N	0.856965	0.153022	0.338919
602	C	0.875878	0.188679	0.338919
603	N	0.857601	0.206069	0.338919
604	C	0.821946	0.189326	0.338919
605	N	0.804554	0.153658	0.338919
606	C	0.803581	0.208379	0.338879
607	C	0.768114	0.19252	0.352558
608	C	0.750165	0.21144	0.352991
609	C	0.766853	0.246777	0.338923
610	C	0.802286	0.263171	0.657968
611	C	0.82017	0.2439	0.658493
612	H	0.845707	0.256193	0.647981
613	C	0.747848	0.265121	0.339847
614	C	0.740051	0.27624	0.3809
615	C	0.721271	0.294626	0.379999
616	C	0.710013	0.301914	0.339067
617	C	0.717897	0.290779	0.631828
618	C	0.736724	0.272726	0.632231
619	H	0.715782	0.302684	0.409672
620	H	0.710093	0.295813	0.601667
621	H	0.755004	0.167022	0.363214
622	H	0.742061	0.26494	0.602252
623	H	0.72459	0.199047	0.363436
624	N	0.819274	0.29863	0.644004
625	N	0.751724	0.269306	0.421932
626	O	0.726461	0.250776	0.447572
627	O	0.829301	0.301741	0.603866
628	O	0.845291	0.317503	0.668393
629	O	0.772459	0.297186	0.442032
630	C	0.802245	0.097327	0.338879
631	C	0.818105	0.07772	0.352558
632	C	0.799184	0.04085	0.352991
633	C	0.763847	0.022201	0.338919
634	C	0.747454	0.041239	0.657968
635	C	0.766723	0.078394	0.658493
636	H	0.75443	0.09164	0.647981
637	C	0.745501	0.484851	0.339847
638	C	0.73438	0.465936	0.3809
639	C	0.715998	0.428772	0.379999
640	C	0.708711	0.410226	0.339067
641	C	0.719844	0.429243	0.631828
642	C	0.737898	0.466122	0.632231
643	H	0.707937	0.415223	0.409672
644	H	0.714812	0.416405	0.601667
645	H	0.843602	0.090106	0.363214
646	H	0.745683	0.479246	0.602252
647	H	0.811577	0.027668	0.363436
648	N	0.711994	0.022767	0.644004
649	N	0.741314	0.484542	0.421929
650	O	0.759846	0.47781	0.447572
651	O	0.708883	0.029687	0.603866
652	O	0.693119	0.529912	0.668393
653	O	0.713436	0.977399	0.442028
654	C	0.913297	0.207043	0.338879
655	C	0.932903	0.242509	0.352558
656	C	0.969774	0.260459	0.352991
657	C	0.988423	0.243771	0.338923
658	C	0.969385	0.208338	0.657968
659	C	0.93223	0.190454	0.658493
660	H	0.918984	0.164916	0.647981
661	C	0.525772	0.262776	0.339847
662	C	0.544686	0.270569	0.3809
663	C	0.581853	0.289351	0.379999
664	C	0.600399	0.300611	0.339067
665	C	0.581381	0.292728	0.631831
666	C	0.544501	0.273902	0.632231
667	H	0.595401	0.294838	0.409672
668	H	0.594219	0.300535	0.601667
669	H	0.920517	0.25562	0.363214
670	H	0.531377	0.268564	0.602252
671	H	0.982956	0.286033	0.363436
672	N	0.987856	0.191351	0.644004
673	N	0.526079	0.258896	0.421932
674	O	0.532813	0.284159	0.447572
675	O	0.980937	0.181323	0.603866
676	O	0.480712	0.165333	0.668393
677	C	0.690587	0.373329	0.672087
678	N	0.654965	0.355008	0.672144
679	C	0.637294	0.319382	0.672087
680	N	0.655614	0.302081	0.672148
681	C	0.69124	0.320037	0.672087
682	N	0.708543	0.355658	0.672144
683	C	0.821299	0.134744	0.672255
684	N	0.856965	0.153022	0.672255
685	C	0.875878	0.188679	0.672255
686	N	0.857601	0.206069	0.672255
687	C	0.821946	0.189326	0.672255
688	N	0.804554	0.153658	0.672255
689	C	0.803581	0.208379	0.672211
690	C	0.768114	0.19252	0.68589
691	C	0.750165	0.21144	0.686327
692	C	0.766853	0.246777	0.672255
693	C	0.802286	0.263171	0.991304
694	C	0.82017	0.2439	0.991828
695	H	0.845707	0.256193	0.981313
696	C	0.747848	0.265121	0.67318
697	C	0.740051	0.27624	0.714232
698	C	0.721271	0.294626	0.713331
699	C	0.710013	0.301914	0.6724
700	C	0.717897	0.290779	0.965164
701	C	0.736724	0.272726	0.965567
702	H	0.715782	0.302684	0.743008
703	H	0.710093	0.295813	0.935003
704	H	0.755004	0.167022	0.696547
705	H	0.742061	0.26494	0.935584
706	H	0.72459	0.199047	0.696772
707	N	0.819274	0.29863	0.97734
708	N	0.751724	0.269306	0.755265
709	O	0.726461	0.250776	0.780904
710	O	0.829301	0.301741	0.937198
711	O	0.845291	0.317503	0.001725
712	O	0.772459	0.297186	0.775364
713	C	0.802245	0.097327	0.672211
714	C	0.818105	0.07772	0.68589
715	C	0.799184	0.04085	0.686324
716	C	0.763847	0.022201	0.672255
717	C	0.747454	0.041239	0.991304
718	C	0.766723	0.078394	0.991828
719	H	0.75443	0.09164	0.981313
720	C	0.745501	0.484851	0.67318
721	C	0.73438	0.465936	0.714232
722	C	0.715998	0.428772	0.713331
723	C	0.708711	0.410226	0.6724
724	C	0.719844	0.429243	0.965164
725	C	0.737898	0.466122	0.965567
726	H	0.707937	0.415223	0.743005
727	H	0.714812	0.416405	0.935003
728	H	0.843602	0.090106	0.696547
729	H	0.745683	0.479246	0.935584
730	H	0.811577	0.027668	0.696768
731	N	0.711994	0.022767	0.97734
732	N	0.741314	0.484542	0.755265
733	O	0.759846	0.47781	0.780904
734	O	0.708883	0.029687	0.937198
735	O	0.693119	0.529912	0.001725
736	O	0.713436	0.977399	0.775364
737	C	0.913297	0.207043	0.672211
738	C	0.932903	0.242509	0.68589
739	C	0.969774	0.260459	0.686327
740	C	0.988423	0.243771	0.672255
741	C	0.969385	0.208338	0.991304
742	C	0.93223	0.190454	0.991828
743	H	0.918984	0.164916	0.981313
744	C	0.525772	0.262776	0.67318
745	C	0.544686	0.270569	0.714232
746	C	0.581853	0.289351	0.713331
747	C	0.600399	0.300611	0.6724
748	C	0.581381	0.292728	0.965164
749	C	0.544501	0.273902	0.965567
750	H	0.595401	0.294838	0.743008
751	H	0.594219	0.300535	0.935003
752	H	0.920517	0.25562	0.696547
753	H	0.531377	0.268564	0.935584
754	H	0.982956	0.286033	0.696772
755	N	0.987856	0.191351	0.97734
756	N	0.526079	0.258896	0.755265
757	O	0.532813	0.284159	0.780904
758	O	0.980937	0.181323	0.937198
759	O	0.480712	0.165333	0.001725
760	C	0.690586	0.873327	0.005422
761	N	0.654965	0.855009	0.005479
762	C	0.637295	0.819383	0.005422
763	N	0.655615	0.802082	0.00548
764	C	0.691241	0.820038	0.005422
765	N	0.708541	0.855659	0.005479
766	C	0.821296	0.634744	0.005588
767	N	0.856966	0.653023	0.005587
768	C	0.875878	0.688678	0.005588
769	N	0.857602	0.70607	0.005587
770	C	0.821943	0.689325	0.005588
771	N	0.804554	0.653657	0.005587
772	C	0.803581	0.708379	0.005545
773	C	0.768113	0.69252	0.019224
774	C	0.750163	0.71144	0.019659
775	C	0.766852	0.746778	0.005588
776	C	0.802285	0.763172	0.324636
777	C	0.820168	0.743901	0.325161
778	H	0.845707	0.756194	0.314646
779	C	0.747848	0.765122	0.006514
780	C	0.740052	0.776241	0.047568
781	C	0.72127	0.794624	0.046666
782	C	0.710014	0.801914	0.005734
783	C	0.717898	0.79078	0.298496
784	C	0.736724	0.772727	0.298899
785	H	0.715782	0.802685	0.076341
786	H	0.710091	0.795814	0.268335
787	H	0.755001	0.667022	0.029882
788	H	0.742061	0.764941	0.268919
789	H	0.72459	0.699047	0.030104
790	N	0.819272	0.798631	0.310672
791	N	0.751724	0.769307	0.088598
792	O	0.726459	0.750774	0.114238
793	O	0.8293	0.801739	0.270533
794	O	0.845291	0.817504	0.335058
795	O	0.772458	0.797184	0.108698
796	C	0.802246	0.597328	0.005545
797	C	0.818105	0.577721	0.019224
798	C	0.799184	0.54085	0.019659
799	C	0.763848	0.522202	0.005588
800	C	0.747452	0.54124	0.324636
801	C	0.766723	0.578395	0.325161
802	H	0.754429	0.591639	0.314646
803	C	0.745502	0.984852	0.006514
804	C	0.734381	0.965937	0.047567
805	C	0.715997	0.92877	0.046666
806	C	0.708711	0.910227	0.005734
807	C	0.719845	0.929244	0.298496
808	C	0.737898	0.966123	0.298899
809	H	0.707937	0.915224	0.07634
810	H	0.714811	0.916404	0.268335
811	H	0.843602	0.590106	0.029882
812	H	0.745684	0.979247	0.268919
813	H	0.811578	0.527669	0.030104
814	N	0.711994	0.522768	0.310672
815	N	0.741314	0.984543	0.088597
816	O	0.759846	0.977811	0.114238
817	O	0.708883	0.529686	0.270533
818	O	0.693119	0.029913	0.335058
819	O	0.713436	0.477399	0.108697
820	C	0.913297	0.707043	0.005545
821	C	0.932903	0.742509	0.019224
822	C	0.969774	0.76046	0.019659
823	C	0.988423	0.743772	0.005588
824	C	0.969383	0.708337	0.324636
825	C	0.93223	0.690455	0.325161
826	H	0.918983	0.664915	0.314646
827	C	0.525771	0.762774	0.006514
828	C	0.544686	0.77057	0.047568
829	C	0.581853	0.789351	0.046666
830	C	0.600397	0.800609	0.005734
831	C	0.581379	0.792727	0.298496
832	C	0.5445	0.773901	0.2989
833	H	0.5954	0.794839	0.076341
834	H	0.594218	0.800533	0.268335
835	H	0.920517	0.75562	0.029882
836	H	0.531377	0.768565	0.268919
837	H	0.982956	0.786034	0.030104
838	N	0.987855	0.691351	0.310672
839	N	0.526079	0.758895	0.088598
840	O	0.532813	0.78416	0.114239
841	O	0.980937	0.681322	0.270533
842	O	0.48071	0.665331	0.335058
843	C	0.690586	0.873327	0.338755
844	N	0.654965	0.855009	0.338812
845	C	0.637295	0.819383	0.338755
846	N	0.655615	0.802082	0.338812
847	C	0.691241	0.820038	0.338755
848	N	0.708541	0.855659	0.338812
849	C	0.821296	0.634744	0.338919
850	N	0.856966	0.653023	0.338919
851	C	0.875878	0.688678	0.338919
852	N	0.857602	0.70607	0.338919
853	C	0.821943	0.689325	0.338919
854	N	0.804554	0.653657	0.338919
855	C	0.803581	0.708379	0.338879
856	C	0.768113	0.69252	0.352558
857	C	0.750163	0.71144	0.352991
858	C	0.766852	0.746778	0.338923
859	C	0.802285	0.763172	0.657968
860	C	0.820168	0.743901	0.658493
861	H	0.845707	0.756194	0.647981
862	C	0.747848	0.765122	0.339847
863	C	0.740052	0.776241	0.3809
864	C	0.72127	0.794624	0.379999
865	C	0.710014	0.801914	0.339067
866	C	0.717898	0.79078	0.631828
867	C	0.736724	0.772727	0.632231
868	H	0.715782	0.802685	0.409672
869	H	0.710091	0.795814	0.601667
870	H	0.755001	0.667022	0.363214
871	H	0.742061	0.764941	0.602252
872	H	0.72459	0.699047	0.363436
873	N	0.819272	0.798631	0.644004
874	N	0.751724	0.769307	0.421932
875	O	0.726459	0.750774	0.447572
876	O	0.8293	0.801739	0.603866
877	O	0.845291	0.817504	0.668393
878	O	0.772458	0.797184	0.442032
879	C	0.802246	0.597328	0.338879
880	C	0.818105	0.577721	0.352558
881	C	0.799184	0.54085	0.352991
882	C	0.763848	0.522202	0.338919
883	C	0.747452	0.54124	0.657968
884	C	0.766723	0.578395	0.658493
885	H	0.754429	0.591639	0.647981
886	C	0.745502	0.984852	0.339847
887	C	0.734381	0.965937	0.3809
888	C	0.715997	0.92877	0.379999
889	C	0.708711	0.910227	0.339067
890	C	0.719845	0.929244	0.631828
891	C	0.737898	0.966123	0.632231
892	H	0.707937	0.915224	0.409672
893	H	0.714811	0.916404	0.601667
894	H	0.843602	0.590106	0.363214
895	H	0.745684	0.979247	0.602252
896	H	0.811578	0.527669	0.363436
897	N	0.711994	0.522768	0.644004
898	N	0.741314	0.984543	0.421929
899	O	0.759846	0.977811	0.447572
900	O	0.708883	0.529686	0.603866
901	O	0.693119	0.029913	0.668393
902	O	0.713436	0.477399	0.442028
903	C	0.913297	0.707043	0.338879
904	C	0.932903	0.742509	0.352558
905	C	0.969774	0.76046	0.352991
906	C	0.988423	0.743772	0.338923
907	C	0.969383	0.708337	0.657968
908	C	0.93223	0.690455	0.658493
909	H	0.918983	0.664915	0.647981
910	C	0.525771	0.762774	0.339847
911	C	0.544686	0.77057	0.3809
912	C	0.581853	0.789351	0.379999
913	C	0.600397	0.800609	0.339067
914	C	0.581379	0.792727	0.631831
915	C	0.5445	0.773901	0.632231
916	H	0.5954	0.794839	0.409672
917	H	0.594218	0.800533	0.601667
918	H	0.920517	0.75562	0.363214
919	H	0.531377	0.768565	0.602252
920	H	0.982956	0.786034	0.363436
921	N	0.987855	0.691351	0.644004
922	N	0.526079	0.758895	0.421932
923	O	0.532813	0.78416	0.447572
924	O	0.980937	0.681322	0.603866
925	O	0.48071	0.665331	0.668393
926	C	0.690586	0.873327	0.672087
927	N	0.654965	0.855009	0.672144
928	C	0.637295	0.819383	0.672087
929	N	0.655615	0.802082	0.672148
930	C	0.691241	0.820038	0.672087
931	N	0.708541	0.855659	0.672144
932	C	0.821296	0.634744	0.672255
933	N	0.856966	0.653023	0.672255
934	C	0.875878	0.688678	0.672255
935	N	0.857602	0.70607	0.672255
936	C	0.821943	0.689325	0.672255
937	N	0.804554	0.653657	0.672255
938	C	0.803581	0.708379	0.672211
939	C	0.768113	0.69252	0.68589
940	C	0.750163	0.71144	0.686327
941	C	0.766852	0.746778	0.672255
942	C	0.802285	0.763172	0.991304
943	C	0.820168	0.743901	0.991828
944	H	0.845707	0.756194	0.981313
945	C	0.747848	0.765122	0.67318
946	C	0.740052	0.776241	0.714232
947	C	0.72127	0.794624	0.713331
948	C	0.710014	0.801914	0.6724
949	C	0.717898	0.79078	0.965164
950	C	0.736724	0.772727	0.965567
951	H	0.715782	0.802685	0.743008
952	H	0.710091	0.795814	0.935003
953	H	0.755001	0.667022	0.696547
954	H	0.742061	0.764941	0.935584
955	H	0.72459	0.699047	0.696772
956	N	0.819272	0.798631	0.97734
957	N	0.751724	0.769307	0.755265
958	O	0.726459	0.750774	0.780904
959	O	0.8293	0.801739	0.937198
960	O	0.845291	0.817504	0.001725
961	O	0.772458	0.797184	0.775364
962	C	0.802246	0.597328	0.672211
963	C	0.818105	0.577721	0.68589
964	C	0.799184	0.54085	0.686324
965	C	0.763848	0.522202	0.672255
966	C	0.747452	0.54124	0.991304
967	C	0.766723	0.578395	0.991828
968	H	0.754429	0.591639	0.981313
969	C	0.745502	0.984852	0.67318
970	C	0.734381	0.965937	0.714232
971	C	0.715997	0.92877	0.713331
972	C	0.708711	0.910227	0.6724
973	C	0.719845	0.929244	0.965164
974	C	0.737898	0.966123	0.965567
975	H	0.707937	0.915224	0.743005
976	H	0.714811	0.916404	0.934999
977	H	0.843602	0.590106	0.696547
978	H	0.745684	0.979247	0.935584
979	H	0.811578	0.527669	0.696768
980	N	0.711994	0.522768	0.97734
981	N	0.741314	0.984543	0.755265
982	O	0.759846	0.977811	0.780904
983	O	0.708883	0.529686	0.937198
984	O	0.693119	0.029913	0.001725
985	O	0.713436	0.477399	0.775364
986	C	0.913297	0.707043	0.672211
987	C	0.932903	0.742509	0.68589
988	C	0.969774	0.76046	0.686327
989	C	0.988423	0.743772	0.672255
990	C	0.969383	0.708337	0.991304
991	C	0.93223	0.690455	0.991828
992	H	0.918983	0.664915	0.981313
993	C	0.525771	0.762774	0.67318
994	C	0.544686	0.77057	0.714232
995	C	0.581853	0.789351	0.713331
996	C	0.600397	0.800609	0.6724
997	C	0.581379	0.792727	0.965164
998	C	0.5445	0.773901	0.965567
999	H	0.5954	0.794839	0.743008
1000	H	0.594218	0.800533	0.935003
1001	H	0.920517	0.75562	0.696547
1002	H	0.531377	0.768565	0.935584
1003	H	0.982956	0.786034	0.696772
1004	N	0.987855	0.691351	0.97734
1005	N	0.526079	0.758895	0.755265
1006	O	0.532813	0.78416	0.780907
1007	O	0.980937	0.681322	0.937198
1008	O	0.48071	0.665331	0.001725
