data_C432H288N72O144_2018-02-15_10:45:51
#******************************************
#
# CIF file created by Zeo++
# Zeo++ is an open source package to
# analyze microporous materials
#
#*******************************************

_cell_length_a		45.6296   
_cell_length_b		45.6296   
_cell_length_c		29.6784   
_cell_angle_alpha		90   
_cell_angle_beta		90   
_cell_angle_gamma		120   

_symmetry_space_group_name_H-M		'P1'
_symmetry_Int_Tables_number		1
_symmetry_cell_setting		Monoclinic

loop_
_symmetry_equiv_pos_as_xyz
'+x,+y,+z'

loop_
_atom_site_label
_atom_site_type_symbol
_atom_site_fract_x
_atom_site_fract_y
_atom_site_fract_z
1	N	0.104527	0.307738	0.006187
2	C	0.04379	0.265998	0.006292
3	C	0.018487	0.23131	0.009765
4	C	0.032658	0.289877	0.334846
5	O	0.027033	0.206819	0.015185
6	O	0.055045	0.32365	0.330864
7	H	0.028126	0.198921	0.984724
8	H	0.058848	0.328276	0.298372
9	C	0.078516	0.275382	0.007311
10	H	0.084624	0.256754	0.009744
11	N	0.104527	0.307738	0.33952
12	C	0.04379	0.265998	0.339625
13	C	0.018487	0.23131	0.343098
14	C	0.032658	0.289877	0.668177
15	O	0.027033	0.206819	0.348517
16	O	0.055045	0.32365	0.664198
17	H	0.028126	0.198921	0.31806
18	H	0.058848	0.328276	0.631706
19	C	0.078516	0.275382	0.340645
20	H	0.084624	0.256754	0.343078
21	N	0.104527	0.307738	0.672854
22	C	0.04379	0.265998	0.672958
23	C	0.018487	0.23131	0.676432
24	C	0.032658	0.289877	0.001511
25	O	0.027033	0.206819	0.68185
26	O	0.055045	0.32365	0.997528
27	H	0.028126	0.198921	0.651394
28	H	0.058848	0.328276	0.965036
29	C	0.078516	0.275382	0.673976
30	H	0.084624	0.256754	0.676409
31	N	0.104526	0.807737	0.006187
32	C	0.04379	0.766	0.006292
33	C	0.018488	0.731311	0.009765
34	C	0.032658	0.789876	0.334846
35	O	0.027034	0.70682	0.015185
36	O	0.055045	0.82365	0.330864
37	H	0.028126	0.698922	0.984724
38	H	0.058846	0.828275	0.298372
39	C	0.078514	0.775381	0.007311
40	H	0.084623	0.756756	0.009744
41	N	0.104526	0.807737	0.33952
42	C	0.04379	0.766	0.339625
43	C	0.018488	0.731311	0.343098
44	C	0.032658	0.789876	0.668177
45	O	0.027034	0.70682	0.348517
46	O	0.055045	0.82365	0.664198
47	H	0.028126	0.698922	0.31806
48	H	0.058846	0.828275	0.631706
49	C	0.078514	0.775381	0.340645
50	H	0.084623	0.756756	0.343078
51	N	0.104526	0.807737	0.672854
52	C	0.04379	0.766	0.672958
53	C	0.018488	0.731311	0.676432
54	C	0.032658	0.789876	0.001511
55	O	0.027034	0.70682	0.68185
56	O	0.055045	0.82365	0.997528
57	H	0.028126	0.698922	0.651394
58	H	0.058846	0.828275	0.965036
59	C	0.078514	0.775381	0.673976
60	H	0.084623	0.756756	0.676409
61	C	0.191673	0.319596	0.006309
62	C	0.155971	0.303269	0.006287
63	C	0.138762	0.321876	0.006315
64	C	0.158137	0.357578	0.006291
65	C	0.193952	0.374786	0.006315
66	H	0.145822	0.371114	0.006132
67	H	0.142434	0.277419	0.006126
68	O	0.189899	0.234106	0.330845
69	H	0.201631	0.178927	0.359973
70	H	0.185272	0.233283	0.298354
71	O	0.190623	0.486514	0.01517
72	H	0.181636	0.485421	0.984707
73	H	0.18297	0.428923	0.009749
74	C	0.191673	0.319596	0.339641
75	C	0.155971	0.303269	0.339621
76	C	0.138762	0.321876	0.339648
77	C	0.158137	0.357578	0.339625
78	C	0.193952	0.374786	0.339648
79	H	0.145822	0.371114	0.339463
80	H	0.142434	0.277419	0.339459
81	O	0.189899	0.234106	0.664178
82	H	0.201631	0.178927	0.693306
83	H	0.185272	0.233283	0.631686
84	O	0.190623	0.486514	0.348503
85	H	0.181636	0.485421	0.318043
86	H	0.18297	0.428923	0.343082
87	C	0.191673	0.319596	0.672975
88	C	0.155971	0.303269	0.672952
89	C	0.138762	0.321876	0.672982
90	C	0.158137	0.357578	0.672958
91	C	0.193952	0.374786	0.672982
92	H	0.145822	0.371114	0.672797
93	H	0.142434	0.277419	0.672793
94	O	0.189899	0.234106	0.997511
95	H	0.201631	0.178927	0.026639
96	H	0.185272	0.233283	0.96502
97	O	0.190623	0.486514	0.681837
98	H	0.181636	0.485421	0.651377
99	H	0.18297	0.428923	0.676415
100	C	0.191673	0.819596	0.006309
101	C	0.155971	0.803268	0.006287
102	C	0.138761	0.821876	0.006315
103	C	0.158138	0.857577	0.006291
104	C	0.193953	0.874788	0.006315
105	H	0.145823	0.871116	0.006132
106	H	0.142433	0.777418	0.006126
107	O	0.189898	0.734105	0.330845
108	H	0.201632	0.678927	0.359973
109	H	0.185271	0.733282	0.298354
110	O	0.190622	0.986513	0.01517
111	H	0.181636	0.98542	0.984707
112	H	0.182968	0.928922	0.009749
113	C	0.191673	0.819596	0.339641
114	C	0.155971	0.803268	0.339621
115	C	0.138761	0.821876	0.339648
116	C	0.158138	0.857577	0.339625
117	C	0.193953	0.874788	0.339648
118	H	0.145823	0.871116	0.339463
119	H	0.142433	0.777418	0.339459
120	O	0.189898	0.734105	0.664178
121	H	0.201632	0.678927	0.693306
122	H	0.185271	0.733282	0.631686
123	O	0.190622	0.986513	0.348503
124	H	0.181636	0.98542	0.318043
125	H	0.182968	0.928922	0.343082
126	C	0.191673	0.819596	0.672975
127	C	0.155971	0.803268	0.672952
128	C	0.138761	0.821876	0.672982
129	C	0.158138	0.857577	0.672958
130	C	0.193953	0.874788	0.672982
131	H	0.145823	0.871116	0.672797
132	H	0.142433	0.777418	0.672793
133	O	0.189898	0.734105	0.997511
134	H	0.201632	0.678927	0.026639
135	H	0.185271	0.733282	0.96502
136	O	0.190622	0.986513	0.681837
137	H	0.181636	0.98542	0.651377
138	H	0.182968	0.928922	0.676415
139	C	0.210279	0.355412	0.006291
140	H	0.236131	0.367725	0.006124
141	N	0.205811	0.299498	0.006177
142	N	0.21405	0.409022	0.006182
143	C	0.24755	0.280501	0.006281
144	C	0.23402	0.220953	0.33493
145	C	0.223673	0.245492	0.334822
146	O	0.20953	0.187915	0.329513
147	C	0.238168	0.305845	0.007304
148	C	0.233048	0.469759	0.006283
149	C	0.223662	0.495062	0.009758
150	C	0.2482	0.029948	0.009858
151	O	0.236814	0.052336	0.01384
152	H	0.235991	0.056137	0.046332
153	C	0.207704	0.435032	0.007304
154	C	0.210279	0.355412	0.339625
155	H	0.236131	0.367725	0.339456
156	N	0.205811	0.299498	0.33951
157	N	0.21405	0.409022	0.339513
158	C	0.24755	0.280501	0.339614
159	C	0.23402	0.220953	0.668261
160	C	0.223673	0.245492	0.668157
161	O	0.20953	0.187915	0.662847
162	C	0.238168	0.305845	0.340635
163	C	0.233048	0.469759	0.339614
164	C	0.223662	0.495062	0.343092
165	C	0.2482	0.029948	0.343189
166	O	0.236814	0.052336	0.347172
167	H	0.235991	0.056137	0.379664
168	C	0.207704	0.435032	0.340639
169	C	0.210279	0.355412	0.672955
170	H	0.236131	0.367725	0.67279
171	N	0.205811	0.299498	0.672844
172	N	0.21405	0.409022	0.672847
173	C	0.24755	0.280501	0.672948
174	C	0.23402	0.220953	0.001595
175	C	0.223673	0.245492	0.001487
176	O	0.20953	0.187915	0.99618
177	C	0.238168	0.305845	0.673969
178	C	0.233048	0.469759	0.672948
179	C	0.223662	0.495062	0.676422
180	C	0.2482	0.029948	0.676523
181	O	0.236814	0.052336	0.680506
182	H	0.235991	0.056137	0.712998
183	C	0.207704	0.435032	0.673969
184	C	0.210278	0.855411	0.006291
185	H	0.236131	0.867725	0.006124
186	N	0.20581	0.799498	0.006177
187	N	0.214051	0.909022	0.006182
188	C	0.247549	0.7805	0.006281
189	C	0.23402	0.720953	0.33493
190	C	0.223673	0.745492	0.334822
191	O	0.20953	0.687916	0.329513
192	C	0.238167	0.805844	0.007304
193	C	0.233047	0.969758	0.006283
194	C	0.22366	0.995062	0.009758
195	C	0.248199	0.529946	0.009858
196	O	0.236814	0.552335	0.01384
197	H	0.235991	0.556138	0.046332
198	C	0.207704	0.935031	0.007304
199	C	0.210278	0.855411	0.339625
200	H	0.236131	0.867725	0.339456
201	N	0.20581	0.799498	0.33951
202	N	0.214051	0.909022	0.339513
203	C	0.247549	0.7805	0.339614
204	C	0.23402	0.720953	0.668261
205	C	0.223673	0.745492	0.668157
206	O	0.20953	0.687916	0.662847
207	C	0.238167	0.805844	0.340635
208	C	0.233047	0.969758	0.339614
209	C	0.22366	0.995062	0.343092
210	C	0.248199	0.529946	0.343189
211	O	0.236814	0.552335	0.347172
212	H	0.235991	0.556138	0.379664
213	C	0.207704	0.935031	0.340639
214	C	0.210278	0.855411	0.672955
215	H	0.236131	0.867725	0.67279
216	N	0.20581	0.799498	0.672844
217	N	0.214051	0.909022	0.672847
218	C	0.247549	0.7805	0.672948
219	C	0.23402	0.720953	0.001595
220	C	0.223673	0.745492	0.001487
221	O	0.20953	0.687916	0.99618
222	C	0.238167	0.805844	0.673969
223	C	0.233047	0.969758	0.672948
224	C	0.22366	0.995062	0.676422
225	C	0.248199	0.529946	0.676523
226	O	0.236814	0.552335	0.680506
227	H	0.235991	0.556138	0.712998
228	C	0.207704	0.935031	0.673969
229	C	0.324585	0.191243	0.005062
230	C	0.360287	0.207569	0.005086
231	C	0.377497	0.188963	0.005066
232	C	0.358122	0.153262	0.005086
233	C	0.322306	0.136052	0.005059
234	C	0.30598	0.155427	0.005082
235	H	0.370434	0.139723	0.005248
236	H	0.280127	0.143114	0.005244
237	H	0.373824	0.233421	0.005251
238	N	0.310447	0.211341	0.005194
239	N	0.411733	0.203101	0.005194
240	N	0.302208	0.101817	0.005187
241	C	0.282239	0.289887	0.009768
242	C	0.292586	0.265348	0.009874
243	C	0.268709	0.230338	0.338415
244	O	0.326359	0.276733	0.013869
245	H	0.330977	0.27755	0.046362
246	O	0.306727	0.322921	0.0152
247	H	0.314633	0.331918	0.984744
248	H	0.256793	0.330579	0.009753
249	C	0.278092	0.204995	0.337401
250	H	0.259466	0.180261	0.334954
251	C	0.28321	0.041081	0.338412
252	C	0.292596	0.015777	0.334929
253	C	0.268058	0.480891	0.334831
254	O	0.325635	0.024326	0.329539
255	O	0.279445	0.458503	0.330868
256	H	0.334612	0.025413	0.360006
257	H	0.280274	0.454697	0.298379
258	C	0.308552	0.075806	0.337394
259	H	0.333287	0.081915	0.334957
260	C	0.483601	0.220962	0.009878
261	C	0.472469	0.24484	0.338428
262	C	0.497771	0.279529	0.334951
263	O	0.461213	0.187188	0.013848
264	H	0.457409	0.182556	0.046338
265	O	0.489224	0.304018	0.329529
266	H	0.488134	0.311918	0.359986
267	C	0.437742	0.235457	0.337404
268	H	0.431633	0.254082	0.334967
269	C	0.324585	0.191243	0.338395
270	C	0.360287	0.207569	0.338418
271	C	0.377497	0.188963	0.338398
272	C	0.358122	0.153262	0.338418
273	C	0.322306	0.136052	0.338391
274	C	0.30598	0.155427	0.338418
275	H	0.370434	0.139723	0.338583
276	H	0.280127	0.143114	0.33858
277	H	0.373824	0.233421	0.338587
278	N	0.310447	0.211341	0.338526
279	N	0.411733	0.203101	0.338529
280	N	0.302208	0.101817	0.338519
281	C	0.282239	0.289887	0.343102
282	C	0.292586	0.265348	0.343206
283	C	0.268709	0.230338	0.671749
284	O	0.326359	0.276733	0.347202
285	H	0.330977	0.27755	0.379694
286	O	0.306727	0.322921	0.348533
287	H	0.314633	0.331918	0.318078
288	H	0.256793	0.330579	0.343085
289	C	0.278092	0.204995	0.670734
290	H	0.259466	0.180261	0.668288
291	C	0.28321	0.041081	0.671742
292	C	0.292596	0.015777	0.668261
293	C	0.268058	0.480891	0.668164
294	O	0.325635	0.024326	0.662874
295	O	0.279445	0.458503	0.664201
296	H	0.334612	0.025413	0.69334
297	H	0.280274	0.454697	0.631713
298	C	0.308552	0.075806	0.670728
299	H	0.333287	0.081915	0.668288
300	C	0.483601	0.220962	0.34321
301	C	0.472469	0.24484	0.671762
302	C	0.497771	0.279529	0.668285
303	O	0.461213	0.187188	0.347179
304	H	0.457409	0.182556	0.379671
305	O	0.489224	0.304018	0.662863
306	H	0.488134	0.311918	0.69332
307	C	0.437742	0.235457	0.670738
308	H	0.431633	0.254082	0.668302
309	C	0.324585	0.191243	0.671728
310	C	0.360287	0.207569	0.671752
311	C	0.377497	0.188963	0.671732
312	C	0.358122	0.153262	0.671752
313	C	0.322306	0.136052	0.671725
314	C	0.30598	0.155427	0.671749
315	H	0.370434	0.139723	0.671914
316	H	0.280127	0.143114	0.671914
317	H	0.373824	0.233421	0.671921
318	N	0.310447	0.211341	0.67186
319	N	0.411733	0.203101	0.671863
320	N	0.302208	0.101817	0.671853
321	C	0.282239	0.289887	0.676432
322	C	0.292586	0.265348	0.67654
323	C	0.268709	0.230338	0.005082
324	O	0.326359	0.276733	0.680536
325	H	0.330977	0.27755	0.713028
326	O	0.306727	0.322921	0.681864
327	H	0.314633	0.331918	0.651411
328	H	0.256793	0.330579	0.676419
329	C	0.278092	0.204995	0.004068
330	H	0.259466	0.180261	0.001619
331	C	0.28321	0.041081	0.005076
332	C	0.292596	0.015777	0.001595
333	C	0.268058	0.480891	0.001497
334	O	0.325635	0.024326	0.996204
335	O	0.279445	0.458503	0.997535
336	H	0.334612	0.025413	0.026673
337	H	0.280274	0.454697	0.965043
338	C	0.308552	0.075806	0.004058
339	H	0.333287	0.081915	0.001622
340	C	0.483601	0.220962	0.676543
341	C	0.472469	0.24484	0.005093
342	C	0.497771	0.279529	0.001615
343	O	0.461213	0.187188	0.680513
344	H	0.457409	0.182556	0.713004
345	O	0.489224	0.304018	0.996194
346	H	0.488134	0.311918	0.026654
347	C	0.437742	0.235457	0.004072
348	H	0.431633	0.254082	0.001632
349	C	0.324585	0.691244	0.005062
350	C	0.360286	0.707569	0.005086
351	C	0.377497	0.688964	0.005066
352	C	0.358121	0.653262	0.005086
353	C	0.322305	0.636052	0.005059
354	C	0.305979	0.655426	0.005082
355	H	0.370435	0.639724	0.005248
356	H	0.280126	0.643112	0.005244
357	H	0.373825	0.733421	0.005251
358	N	0.310447	0.711339	0.005194
359	N	0.411731	0.7031	0.005194
360	N	0.302207	0.601815	0.005187
361	C	0.282238	0.789886	0.009768
362	C	0.292586	0.765347	0.009874
363	C	0.268709	0.730339	0.338415
364	O	0.326359	0.776732	0.013869
365	H	0.330977	0.77755	0.046362
366	O	0.306727	0.822921	0.0152
367	H	0.314632	0.831917	0.984744
368	H	0.256792	0.830578	0.009753
369	C	0.278091	0.704995	0.337401
370	H	0.259466	0.680261	0.334954
371	C	0.28321	0.541081	0.338412
372	C	0.292596	0.515778	0.334929
373	C	0.268057	0.98089	0.334831
374	O	0.325636	0.524326	0.329539
375	O	0.279444	0.958502	0.330868
376	H	0.334612	0.525414	0.360006
377	H	0.280274	0.954696	0.298379
378	C	0.308553	0.575806	0.337394
379	H	0.333288	0.581915	0.334957
380	C	0.483601	0.720963	0.009878
381	C	0.472468	0.744839	0.338428
382	C	0.497772	0.779529	0.334951
383	O	0.461213	0.687187	0.013848
384	H	0.457408	0.682556	0.046338
385	O	0.489224	0.804017	0.329529
386	H	0.488132	0.811918	0.359986
387	C	0.437742	0.735456	0.337404
388	H	0.431634	0.754084	0.334967
389	C	0.324585	0.691244	0.338395
390	C	0.360286	0.707569	0.338418
391	C	0.377497	0.688964	0.338398
392	C	0.358121	0.653262	0.338418
393	C	0.322305	0.636052	0.338395
394	C	0.305979	0.655426	0.338418
395	H	0.370435	0.639724	0.338583
396	H	0.280126	0.643112	0.33858
397	H	0.373825	0.733421	0.338587
398	N	0.310447	0.711339	0.338526
399	N	0.411731	0.7031	0.338529
400	N	0.302207	0.601815	0.338519
401	C	0.282238	0.789886	0.343102
402	C	0.292586	0.765347	0.343206
403	C	0.268709	0.730339	0.671749
404	O	0.326359	0.776732	0.347202
405	H	0.330977	0.77755	0.379694
406	O	0.306727	0.822921	0.348533
407	H	0.314632	0.831917	0.318078
408	H	0.256792	0.830578	0.343085
409	C	0.278091	0.704995	0.670734
410	H	0.259466	0.680261	0.668288
411	C	0.28321	0.541081	0.671742
412	C	0.292596	0.515778	0.668261
413	C	0.268057	0.98089	0.668164
414	O	0.325636	0.524326	0.662874
415	O	0.279444	0.958502	0.664201
416	H	0.334612	0.525414	0.69334
417	H	0.280274	0.954696	0.631713
418	C	0.308553	0.575806	0.670728
419	H	0.333288	0.581915	0.668288
420	C	0.483601	0.720963	0.34321
421	C	0.472468	0.744839	0.671762
422	C	0.497772	0.779529	0.668285
423	O	0.461213	0.687187	0.347179
424	H	0.457408	0.682556	0.379671
425	O	0.489224	0.804017	0.662863
426	H	0.488132	0.811918	0.69332
427	C	0.437742	0.735456	0.670738
428	H	0.431634	0.754084	0.668302
429	C	0.324585	0.691244	0.671728
430	C	0.360286	0.707569	0.671752
431	C	0.377497	0.688964	0.671732
432	C	0.358121	0.653262	0.671752
433	C	0.322305	0.636052	0.671725
434	C	0.305979	0.655426	0.671749
435	H	0.370435	0.639724	0.671914
436	H	0.280126	0.643112	0.671914
437	H	0.373825	0.733421	0.671921
438	N	0.310447	0.711339	0.67186
439	N	0.411731	0.7031	0.671863
440	N	0.302207	0.601815	0.671853
441	C	0.282238	0.789886	0.676432
442	C	0.292586	0.765347	0.67654
443	C	0.268709	0.730339	0.005082
444	O	0.326359	0.776732	0.680536
445	H	0.330977	0.77755	0.713028
446	O	0.306727	0.822921	0.681864
447	H	0.314632	0.831917	0.651411
448	H	0.256792	0.830578	0.676419
449	C	0.278091	0.704995	0.004068
450	H	0.259466	0.680261	0.001619
451	C	0.28321	0.541081	0.005076
452	C	0.292596	0.515778	0.001595
453	C	0.268057	0.98089	0.001497
454	O	0.325636	0.524326	0.996204
455	O	0.279444	0.958502	0.997535
456	H	0.334612	0.525414	0.026673
457	H	0.280274	0.954696	0.965043
458	C	0.308553	0.575806	0.004058
459	H	0.333288	0.581915	0.001622
460	C	0.483601	0.720963	0.676543
461	C	0.472468	0.744839	0.005093
462	C	0.497772	0.779529	0.001615
463	O	0.461213	0.687187	0.680513
464	H	0.457408	0.682556	0.713004
465	O	0.489224	0.804017	0.996194
466	H	0.488132	0.811918	0.026654
467	C	0.437742	0.735456	0.004072
468	H	0.431634	0.754084	0.001632
469	C	0.691674	0.319596	0.006309
470	C	0.655971	0.303269	0.006287
471	C	0.638762	0.321876	0.006315
472	C	0.658138	0.357578	0.006291
473	C	0.693952	0.374786	0.006315
474	C	0.710279	0.355412	0.006291
475	H	0.645822	0.371114	0.006132
476	H	0.736131	0.367725	0.006124
477	H	0.642435	0.277419	0.006126
478	N	0.705811	0.299498	0.006177
479	N	0.604526	0.307738	0.006187
480	N	0.714051	0.409022	0.006182
481	C	0.824585	0.191243	0.005062
482	C	0.860287	0.207569	0.005086
483	C	0.877497	0.188963	0.005066
484	C	0.858122	0.153262	0.005086
485	C	0.822306	0.136052	0.005059
486	C	0.80598	0.155427	0.005082
487	H	0.870436	0.139723	0.005248
488	H	0.780128	0.143114	0.005244
489	H	0.873824	0.233421	0.005251
490	N	0.810447	0.211341	0.005194
491	N	0.911733	0.203101	0.005194
492	N	0.802208	0.101817	0.005187
493	C	0.747549	0.280501	0.006281
494	C	0.782238	0.289887	0.009768
495	C	0.792588	0.265348	0.009874
496	C	0.76871	0.230338	0.338415
497	C	0.734021	0.220953	0.33493
498	C	0.723674	0.245492	0.334822
499	O	0.826358	0.276733	0.013869
500	H	0.830977	0.27755	0.046362
501	O	0.806728	0.322921	0.0152
502	O	0.70953	0.187915	0.329513
503	O	0.6899	0.234106	0.330845
504	H	0.701632	0.178927	0.359973
505	H	0.814632	0.331918	0.984744
506	H	0.685272	0.233283	0.298354
507	C	0.738168	0.305845	0.007304
508	H	0.756794	0.330579	0.009753
509	C	0.778092	0.204995	0.337401
510	H	0.759466	0.180261	0.334954
511	C	0.733047	0.469759	0.006283
512	C	0.723663	0.495062	0.009758
513	C	0.7482	0.029948	0.009858
514	C	0.78321	0.041081	0.338412
515	C	0.792596	0.015777	0.334929
516	C	0.768057	0.480891	0.334831
517	O	0.736814	0.052336	0.01384
518	H	0.735991	0.056137	0.046332
519	O	0.690624	0.486514	0.01517
520	O	0.825637	0.024326	0.329539
521	O	0.779445	0.458503	0.330868
522	H	0.834612	0.025413	0.360006
523	H	0.681636	0.485421	0.984707
524	H	0.780275	0.454697	0.298379
525	C	0.707704	0.435032	0.007304
526	H	0.682971	0.428923	0.009749
527	C	0.808554	0.075806	0.337394
528	H	0.833287	0.081915	0.334957
529	C	0.543789	0.265998	0.006292
530	C	0.518488	0.23131	0.009765
531	C	0.983601	0.220962	0.009878
532	C	0.972469	0.24484	0.338428
533	C	0.997773	0.279529	0.334951
534	C	0.532658	0.289877	0.334846
535	O	0.961213	0.187188	0.013848
536	H	0.957409	0.182556	0.046338
537	O	0.527034	0.206819	0.015185
538	O	0.989224	0.304018	0.329529
539	O	0.555046	0.32365	0.330864
540	H	0.988134	0.311918	0.359986
541	H	0.528125	0.198921	0.984724
542	H	0.558849	0.328276	0.298372
543	C	0.578516	0.275382	0.007311
544	H	0.584625	0.256754	0.009744
545	C	0.937742	0.235457	0.337404
546	H	0.931633	0.254082	0.334967
547	C	0.691674	0.319596	0.339641
548	C	0.655971	0.303269	0.339621
549	C	0.638762	0.321876	0.339648
550	C	0.658138	0.357578	0.339625
551	C	0.693952	0.374786	0.339648
552	C	0.710279	0.355412	0.339625
553	H	0.645822	0.371114	0.339463
554	H	0.736131	0.367725	0.339456
555	H	0.642435	0.277419	0.339459
556	N	0.705811	0.299498	0.33951
557	N	0.604526	0.307738	0.33952
558	N	0.714051	0.409022	0.339513
559	C	0.824585	0.191243	0.338395
560	C	0.860287	0.207569	0.338418
561	C	0.877497	0.188963	0.338398
562	C	0.858122	0.153262	0.338418
563	C	0.822306	0.136052	0.338391
564	C	0.80598	0.155427	0.338418
565	H	0.870436	0.139723	0.338583
566	H	0.780128	0.143114	0.33858
567	H	0.873824	0.233421	0.338587
568	N	0.810447	0.211341	0.338526
569	N	0.911733	0.203101	0.338529
570	N	0.802208	0.101817	0.338519
571	C	0.747549	0.280501	0.339614
572	C	0.782238	0.289887	0.343102
573	C	0.792588	0.265348	0.343206
574	C	0.76871	0.230338	0.671749
575	C	0.734021	0.220953	0.668261
576	C	0.723674	0.245492	0.668157
577	O	0.826358	0.276733	0.347202
578	H	0.830977	0.27755	0.379694
579	O	0.806728	0.322921	0.348533
580	O	0.70953	0.187915	0.662847
581	O	0.6899	0.234106	0.664178
582	H	0.701632	0.178927	0.693306
583	H	0.814632	0.331918	0.318078
584	H	0.685272	0.233283	0.631686
585	C	0.738168	0.305845	0.340635
586	H	0.756794	0.330579	0.343085
587	C	0.778092	0.204995	0.670734
588	H	0.759466	0.180261	0.668288
589	C	0.733047	0.469759	0.339614
590	C	0.723663	0.495062	0.343092
591	C	0.7482	0.029948	0.343189
592	C	0.78321	0.041081	0.671742
593	C	0.792596	0.015777	0.668261
594	C	0.768057	0.480891	0.668164
595	O	0.736814	0.052336	0.347172
596	H	0.735991	0.056137	0.379664
597	O	0.690624	0.486514	0.348503
598	O	0.825637	0.024326	0.662874
599	O	0.779445	0.458503	0.664201
600	H	0.834612	0.025413	0.69334
601	H	0.681636	0.485421	0.318043
602	H	0.780275	0.454697	0.631713
603	C	0.707704	0.435032	0.340639
604	H	0.682971	0.428923	0.343082
605	C	0.808554	0.075806	0.670728
606	H	0.833287	0.081915	0.668288
607	C	0.543789	0.265998	0.339625
608	C	0.518488	0.23131	0.343098
609	C	0.983601	0.220962	0.34321
610	C	0.972469	0.24484	0.671762
611	C	0.997773	0.279529	0.668285
612	C	0.532658	0.289877	0.668177
613	O	0.961213	0.187188	0.347179
614	H	0.957409	0.182556	0.379671
615	O	0.527034	0.206819	0.348517
616	O	0.989224	0.304018	0.662863
617	O	0.555046	0.32365	0.664198
618	H	0.988134	0.311918	0.69332
619	H	0.528125	0.198921	0.31806
620	H	0.558849	0.328276	0.631706
621	C	0.578516	0.275382	0.340645
622	H	0.584625	0.256754	0.343078
623	C	0.937742	0.235457	0.670738
624	H	0.931633	0.254082	0.668302
625	C	0.691674	0.319596	0.672975
626	C	0.655971	0.303269	0.672952
627	C	0.638762	0.321876	0.672982
628	C	0.658138	0.357578	0.672958
629	C	0.693952	0.374786	0.672982
630	C	0.710279	0.355412	0.672955
631	H	0.645822	0.371114	0.672797
632	H	0.736131	0.367725	0.67279
633	H	0.642435	0.277419	0.672793
634	N	0.705811	0.299498	0.672844
635	N	0.604526	0.307738	0.672854
636	N	0.714051	0.409022	0.672847
637	C	0.824585	0.191243	0.671728
638	C	0.860287	0.207569	0.671752
639	C	0.877497	0.188963	0.671732
640	C	0.858122	0.153262	0.671752
641	C	0.822306	0.136052	0.671725
642	C	0.80598	0.155427	0.671749
643	H	0.870436	0.139723	0.671914
644	H	0.780128	0.143114	0.671914
645	H	0.873824	0.233421	0.671921
646	N	0.810447	0.211341	0.67186
647	N	0.911733	0.203101	0.671863
648	N	0.802208	0.101817	0.671853
649	C	0.747549	0.280501	0.672948
650	C	0.782238	0.289887	0.676432
651	C	0.792588	0.265348	0.67654
652	C	0.76871	0.230338	0.005082
653	C	0.734021	0.220953	0.001595
654	C	0.723674	0.245492	0.001487
655	O	0.826358	0.276733	0.680536
656	H	0.830977	0.27755	0.713028
657	O	0.806728	0.322921	0.681864
658	O	0.70953	0.187915	0.99618
659	O	0.6899	0.234106	0.997511
660	H	0.701632	0.178927	0.026639
661	H	0.814632	0.331918	0.651411
662	H	0.685272	0.233283	0.96502
663	C	0.738168	0.305845	0.673969
664	H	0.756794	0.330579	0.676419
665	C	0.778092	0.204995	0.004068
666	H	0.759466	0.180261	0.001619
667	C	0.733047	0.469759	0.672948
668	C	0.723663	0.495062	0.676422
669	C	0.7482	0.029948	0.676523
670	C	0.78321	0.041081	0.005076
671	C	0.792596	0.015777	0.001595
672	C	0.768057	0.480891	0.001497
673	O	0.736814	0.052336	0.680506
674	H	0.735991	0.056137	0.712998
675	O	0.690624	0.486514	0.681837
676	O	0.825637	0.024326	0.996204
677	O	0.779445	0.458503	0.997535
678	H	0.834612	0.025413	0.026673
679	H	0.681636	0.485421	0.651377
680	H	0.780275	0.454697	0.965043
681	C	0.707704	0.435032	0.673969
682	H	0.682971	0.428923	0.676415
683	C	0.808554	0.075806	0.004058
684	H	0.833287	0.081915	0.001622
685	C	0.543789	0.265998	0.672958
686	C	0.518488	0.23131	0.676432
687	C	0.983601	0.220962	0.676543
688	C	0.972469	0.24484	0.005093
689	C	0.997773	0.279529	0.001615
690	C	0.532658	0.289877	0.001511
691	O	0.961213	0.187188	0.680513
692	H	0.957409	0.182556	0.713004
693	O	0.527034	0.206819	0.68185
694	O	0.989224	0.304018	0.996194
695	O	0.555046	0.32365	0.997528
696	H	0.988134	0.311918	0.026654
697	H	0.528125	0.198921	0.651394
698	H	0.558849	0.328276	0.965036
699	C	0.578516	0.275382	0.673976
700	H	0.584625	0.256754	0.676409
701	C	0.937742	0.235457	0.004072
702	H	0.931633	0.254082	0.001632
703	C	0.691674	0.819596	0.006309
704	C	0.655971	0.803268	0.006287
705	C	0.638761	0.821876	0.006315
706	C	0.658138	0.857577	0.006291
707	C	0.693953	0.874788	0.006315
708	C	0.710279	0.855411	0.006291
709	H	0.645824	0.871116	0.006132
710	H	0.736131	0.867725	0.006124
711	H	0.642435	0.777418	0.006126
712	N	0.705811	0.799498	0.006177
713	N	0.604526	0.807737	0.006187
714	N	0.714051	0.909022	0.006182
715	C	0.824585	0.691244	0.005062
716	C	0.860287	0.707569	0.005086
717	C	0.877498	0.688964	0.005066
718	C	0.858122	0.653262	0.005086
719	C	0.822306	0.636052	0.005059
720	C	0.805979	0.655426	0.005082
721	H	0.870434	0.639724	0.005248
722	H	0.780127	0.643112	0.005244
723	H	0.873824	0.733421	0.005251
724	N	0.810447	0.711339	0.005194
725	N	0.911732	0.7031	0.005194
726	N	0.802207	0.601815	0.005187
727	C	0.747549	0.7805	0.006281
728	C	0.782238	0.789886	0.009768
729	C	0.792585	0.765347	0.009874
730	C	0.76871	0.730339	0.338415
731	C	0.734021	0.720953	0.33493
732	C	0.723674	0.745492	0.334822
733	O	0.826358	0.776732	0.013869
734	H	0.830977	0.77755	0.046362
735	O	0.806728	0.822921	0.0152
736	O	0.70953	0.687916	0.329513
737	O	0.6899	0.734105	0.330845
738	H	0.701632	0.678927	0.359973
739	H	0.814632	0.831917	0.984744
740	H	0.685272	0.733282	0.298354
741	C	0.738167	0.805844	0.007304
742	H	0.756793	0.830578	0.009753
743	C	0.778092	0.704995	0.337401
744	H	0.759466	0.680261	0.334954
745	C	0.733047	0.969758	0.006283
746	C	0.723663	0.995062	0.009758
747	C	0.748199	0.529946	0.009858
748	C	0.78321	0.541081	0.338412
749	C	0.792597	0.515778	0.334929
750	C	0.768057	0.98089	0.334831
751	O	0.736813	0.552335	0.01384
752	H	0.735991	0.556138	0.046332
753	O	0.690623	0.986513	0.01517
754	O	0.825637	0.524326	0.329539
755	O	0.779444	0.958502	0.330868
756	H	0.834612	0.525414	0.360006
757	H	0.681635	0.98542	0.984707
758	H	0.780274	0.954696	0.298379
759	C	0.707704	0.935031	0.007304
760	H	0.682969	0.928922	0.009749
761	C	0.808554	0.575806	0.337394
762	H	0.833287	0.581915	0.334957
763	C	0.543791	0.766	0.006292
764	C	0.518488	0.731311	0.009765
765	C	0.983601	0.720963	0.009878
766	C	0.972469	0.744839	0.338428
767	C	0.997771	0.779529	0.334951
768	C	0.532657	0.789876	0.334846
769	O	0.961212	0.687187	0.013848
770	H	0.957409	0.682556	0.046338
771	O	0.527034	0.70682	0.015185
772	O	0.989224	0.804017	0.329529
773	O	0.555045	0.82365	0.330864
774	H	0.988134	0.811918	0.359986
775	H	0.528126	0.698922	0.984724
776	H	0.558848	0.828275	0.298372
777	C	0.578515	0.775381	0.007311
778	H	0.584625	0.756756	0.009744
779	C	0.937742	0.735456	0.337404
780	H	0.931634	0.754084	0.334967
781	C	0.691674	0.819596	0.339641
782	C	0.655971	0.803268	0.339621
783	C	0.638761	0.821876	0.339648
784	C	0.658138	0.857577	0.339625
785	C	0.693953	0.874788	0.339648
786	C	0.710279	0.855411	0.339625
787	H	0.645824	0.871116	0.339463
788	H	0.736131	0.867725	0.339456
789	H	0.642435	0.777418	0.339459
790	N	0.705811	0.799498	0.33951
791	N	0.604526	0.807737	0.33952
792	N	0.714051	0.909022	0.339513
793	C	0.824585	0.691244	0.338395
794	C	0.860287	0.707569	0.338418
795	C	0.877498	0.688964	0.338398
796	C	0.858122	0.653262	0.338418
797	C	0.822306	0.636052	0.338395
798	C	0.805979	0.655426	0.338418
799	H	0.870434	0.639724	0.338583
800	H	0.780127	0.643112	0.33858
801	H	0.873824	0.733421	0.338587
802	N	0.810447	0.711339	0.338526
803	N	0.911732	0.7031	0.338529
804	N	0.802207	0.601815	0.338519
805	C	0.747549	0.7805	0.339614
806	C	0.782238	0.789886	0.343102
807	C	0.792585	0.765347	0.343206
808	C	0.76871	0.730339	0.671749
809	C	0.734021	0.720953	0.668261
810	C	0.723674	0.745492	0.668157
811	O	0.826358	0.776732	0.347202
812	H	0.830977	0.77755	0.379694
813	O	0.806728	0.822921	0.348533
814	O	0.70953	0.687916	0.662847
815	O	0.6899	0.734105	0.664178
816	H	0.701632	0.678927	0.693306
817	H	0.814632	0.831917	0.318078
818	H	0.685272	0.733282	0.631686
819	C	0.738167	0.805844	0.340635
820	H	0.756793	0.830578	0.343085
821	C	0.778092	0.704995	0.670734
822	H	0.759466	0.680261	0.668288
823	C	0.733047	0.969758	0.339614
824	C	0.723663	0.995062	0.343092
825	C	0.748199	0.529946	0.343189
826	C	0.78321	0.541081	0.671742
827	C	0.792597	0.515778	0.668261
828	C	0.768057	0.98089	0.668164
829	O	0.736813	0.552335	0.347172
830	H	0.735991	0.556138	0.379664
831	O	0.690623	0.986513	0.348503
832	O	0.825637	0.524326	0.662874
833	O	0.779444	0.958502	0.664201
834	H	0.834612	0.525414	0.69334
835	H	0.681635	0.98542	0.318043
836	H	0.780274	0.954696	0.631713
837	C	0.707704	0.935031	0.340639
838	H	0.682969	0.928922	0.343082
839	C	0.808554	0.575806	0.670728
840	H	0.833287	0.581915	0.668288
841	C	0.543791	0.766	0.339625
842	C	0.518488	0.731311	0.343098
843	C	0.983601	0.720963	0.34321
844	C	0.972469	0.744839	0.671762
845	C	0.997771	0.779529	0.668285
846	C	0.532657	0.789876	0.668177
847	O	0.961212	0.687187	0.347179
848	H	0.957409	0.682556	0.379671
849	O	0.527034	0.70682	0.348517
850	O	0.989224	0.804017	0.662863
851	O	0.555045	0.82365	0.664198
852	H	0.988134	0.811918	0.69332
853	H	0.528126	0.698922	0.31806
854	H	0.558848	0.828275	0.631706
855	C	0.578515	0.775381	0.340645
856	H	0.584625	0.756756	0.343078
857	C	0.937742	0.735456	0.670738
858	H	0.931634	0.754084	0.668302
859	C	0.691674	0.819596	0.672975
860	C	0.655971	0.803268	0.672952
861	C	0.638761	0.821876	0.672982
862	C	0.658138	0.857577	0.672958
863	C	0.693953	0.874788	0.672982
864	C	0.710279	0.855411	0.672955
865	H	0.645824	0.871116	0.672797
866	H	0.736131	0.867725	0.67279
867	H	0.642435	0.777418	0.672793
868	N	0.705811	0.799498	0.672844
869	N	0.604526	0.807737	0.672854
870	N	0.714051	0.909022	0.672847
871	C	0.824585	0.691244	0.671728
872	C	0.860287	0.707569	0.671752
873	C	0.877498	0.688964	0.671732
874	C	0.858122	0.653262	0.671752
875	C	0.822306	0.636052	0.671725
876	C	0.805979	0.655426	0.671749
877	H	0.870434	0.639724	0.671914
878	H	0.780127	0.643112	0.671914
879	H	0.873824	0.733421	0.671921
880	N	0.810447	0.711339	0.67186
881	N	0.911732	0.7031	0.671863
882	N	0.802207	0.601815	0.671853
883	C	0.747549	0.7805	0.672948
884	C	0.782238	0.789886	0.676432
885	C	0.792585	0.765347	0.67654
886	C	0.76871	0.730339	0.005082
887	C	0.734021	0.720953	0.001595
888	C	0.723674	0.745492	0.001487
889	O	0.826358	0.776732	0.680536
890	H	0.830977	0.77755	0.713028
891	O	0.806728	0.822921	0.681864
892	O	0.70953	0.687916	0.99618
893	O	0.6899	0.734105	0.997511
894	H	0.701632	0.678927	0.026639
895	H	0.814632	0.831917	0.651411
896	H	0.685272	0.733282	0.96502
897	C	0.738167	0.805844	0.673969
898	H	0.756793	0.830578	0.676419
899	C	0.778092	0.704995	0.004068
900	H	0.759466	0.680261	0.001619
901	C	0.733047	0.969758	0.672948
902	C	0.723663	0.995062	0.676422
903	C	0.748199	0.529946	0.676523
904	C	0.78321	0.541081	0.005076
905	C	0.792597	0.515778	0.001595
906	C	0.768057	0.98089	0.001497
907	O	0.736813	0.552335	0.680506
908	H	0.735991	0.556138	0.712998
909	O	0.690623	0.986513	0.681837
910	O	0.825637	0.524326	0.996204
911	O	0.779444	0.958502	0.997535
912	H	0.834612	0.525414	0.026673
913	H	0.681635	0.98542	0.651377
914	H	0.780274	0.954696	0.965043
915	C	0.707704	0.935031	0.673969
916	H	0.682969	0.928922	0.676415
917	C	0.808554	0.575806	0.004058
918	H	0.833287	0.581915	0.001622
919	C	0.543791	0.766	0.672958
920	C	0.518488	0.731311	0.676432
921	C	0.983601	0.720963	0.676543
922	C	0.972469	0.744839	0.005093
923	C	0.997771	0.779529	0.001615
924	C	0.532657	0.789876	0.001511
925	O	0.961212	0.687187	0.680513
926	H	0.957409	0.682556	0.713004
927	O	0.527034	0.70682	0.68185
928	O	0.989224	0.804017	0.996194
929	O	0.555045	0.82365	0.997528
930	H	0.988134	0.811918	0.026654
931	H	0.528126	0.698922	0.651394
932	H	0.558848	0.828275	0.965036
933	C	0.578515	0.775381	0.673976
934	H	0.584625	0.756756	0.676409
935	C	0.937742	0.735456	0.004072
936	H	0.931634	0.754084	0.001632
