data_C576H360N24_2018-02-15_10:43:34
#******************************************
#
# CIF file created by Zeo++
# Zeo++ is an open source package to
# analyze microporous materials
#
#*******************************************

_cell_length_a		43.4813   
_cell_length_b		24.9836   
_cell_length_c		28.989   
_cell_angle_alpha		91.5035   
_cell_angle_beta		89.1362   
_cell_angle_gamma		90.0227   

_symmetry_space_group_name_H-M		'P1'
_symmetry_Int_Tables_number		1
_symmetry_cell_setting		Triclinic

loop_
_symmetry_equiv_pos_as_xyz
'+x,+y,+z'

loop_
_atom_site_label
_atom_site_type_symbol
_atom_site_fract_x
_atom_site_fract_y
_atom_site_fract_z
1	C	0.038087	0.0181	0.018727
2	C	0.055962	0.06598	0.022868
3	C	0.088705	0.068278	0.021305
4	C	0.103922	0.018134	0.018722
5	H	0.127292	0.018149	0.018726
6	C	0.503897	0.01809	0.018728
7	C	0.438062	0.018053	0.018715
8	C	0.453227	0.46807	0.021296
9	C	0.485939	0.470464	0.022873
10	H	0.414691	0.018037	0.018713
11	N	0.155272	0.268169	0.018699
12	C	0.139829	0.219392	0.020839
13	C	0.187546	0.268177	0.018708
14	C	0.135908	0.414408	0.0338
15	C	0.152351	0.365722	0.034094
16	C	0.105804	0.117666	0.022173
17	C	0.093611	0.165983	0.041719
18	C	0.110229	0.214477	0.041842
19	C	0.254318	0.268112	0.018706
20	C	0.236671	0.25259	0.057745
21	C	0.204149	0.252233	0.057657
22	H	0.10043	0.246706	0.058814
23	H	0.072842	0.166274	0.058669
24	H	0.247442	0.240129	0.0867
25	H	0.192452	0.240565	0.086579
26	H	0.173066	0.365742	0.050342
27	H	0.145827	0.446267	0.050594
28	N	0.386715	0.268022	0.018707
29	C	0.402111	0.31693	0.020829
30	C	0.354441	0.268011	0.018713
31	C	0.405757	0.122678	0.033761
32	C	0.389337	0.171414	0.034136
33	C	0.436113	0.418732	0.022152
34	C	0.447925	0.371598	0.041668
35	C	0.431284	0.323134	0.041852
36	C	0.287672	0.268073	0.018707
37	C	0.304532	0.28584	0.05779
38	C	0.337058	0.286196	0.057704
39	H	0.440743	0.291939	0.058823
40	H	0.468326	0.372357	0.058688
41	H	0.29318	0.299964	0.086779
42	H	0.348172	0.299529	0.086658
43	H	0.368267	0.172353	0.050298
44	H	0.395503	0.091855	0.050575
45	H	0.044834	0.101557	0.025038
46	H	0.497022	0.435014	0.025016
47	C	0.538086	0.0181	0.018727
48	C	0.555962	0.06598	0.022868
49	C	0.588705	0.068278	0.021305
50	C	0.603921	0.018134	0.018722
51	H	0.627292	0.018149	0.018726
52	C	0.003895	0.01809	0.018728
53	C	0.93806	0.018053	0.018715
54	C	0.953228	0.46807	0.021296
55	C	0.985937	0.470464	0.022873
56	H	0.914692	0.018037	0.018713
57	N	0.655272	0.268169	0.018699
58	C	0.63983	0.219392	0.020839
59	C	0.687545	0.268177	0.018708
60	C	0.635908	0.414408	0.0338
61	C	0.652352	0.365722	0.034094
62	C	0.605804	0.117666	0.022173
63	C	0.593609	0.165983	0.041719
64	C	0.610228	0.214477	0.041842
65	C	0.754319	0.268112	0.018706
66	C	0.736669	0.25259	0.057745
67	C	0.704148	0.252233	0.057657
68	H	0.600429	0.246706	0.058814
69	H	0.572841	0.166274	0.058669
70	H	0.74744	0.240129	0.0867
71	H	0.692452	0.240565	0.086579
72	H	0.673066	0.365742	0.050342
73	H	0.645827	0.446267	0.050594
74	N	0.886713	0.268022	0.018707
75	C	0.902112	0.31693	0.020829
76	C	0.854442	0.268011	0.018713
77	C	0.905758	0.122678	0.033761
78	C	0.889338	0.171414	0.034136
79	C	0.936111	0.418732	0.022152
80	C	0.947926	0.371598	0.041668
81	C	0.931283	0.323134	0.041852
82	C	0.787671	0.268073	0.018707
83	C	0.804533	0.28584	0.05779
84	C	0.837056	0.286196	0.057704
85	H	0.940744	0.291939	0.058823
86	H	0.968327	0.372357	0.058688
87	H	0.793181	0.299964	0.086779
88	H	0.848173	0.299529	0.086658
89	H	0.868265	0.172353	0.050298
90	H	0.895504	0.091855	0.050575
91	H	0.544833	0.101557	0.025038
92	H	0.99702	0.435014	0.025016
93	C	0.038087	0.518101	0.018727
94	C	0.103922	0.518133	0.018722
95	H	0.127292	0.518149	0.018726
96	C	0.503895	0.518089	0.018728
97	C	0.43806	0.518053	0.018715
98	H	0.414692	0.518037	0.018713
99	C	0.538087	0.518101	0.018727
100	C	0.603922	0.518133	0.018722
101	H	0.627291	0.518149	0.018726
102	C	0.003896	0.518089	0.018728
103	C	0.938061	0.518053	0.018715
104	H	0.91469	0.518037	0.018713
105	C	0.055962	0.565978	0.022868
106	C	0.088705	0.56828	0.021305
107	C	0.453228	0.96807	0.021296
108	C	0.485938	0.970463	0.022873
109	N	0.155272	0.768168	0.018699
110	C	0.139829	0.719393	0.020839
111	C	0.187546	0.768176	0.018708
112	C	0.135908	0.914407	0.0338
113	C	0.152351	0.865724	0.034094
114	C	0.105804	0.617667	0.022173
115	C	0.093611	0.665981	0.041719
116	C	0.110229	0.714477	0.041842
117	C	0.254319	0.768112	0.018706
118	C	0.23667	0.752589	0.057745
119	C	0.204149	0.752235	0.057657
120	H	0.100429	0.746706	0.058814
121	H	0.072842	0.666273	0.058669
122	H	0.24744	0.74013	0.0867
123	H	0.192452	0.740567	0.086579
124	H	0.173066	0.865742	0.050342
125	H	0.145827	0.946267	0.050594
126	N	0.386714	0.768024	0.018707
127	C	0.402112	0.816929	0.020829
128	C	0.354442	0.768012	0.018713
129	C	0.405758	0.622679	0.033761
130	C	0.389338	0.671414	0.034136
131	C	0.436112	0.918732	0.022152
132	C	0.447926	0.871598	0.041668
133	C	0.431283	0.823132	0.041852
134	C	0.287671	0.768072	0.018707
135	C	0.304534	0.785841	0.05779
136	C	0.337057	0.786194	0.057704
137	H	0.440744	0.79194	0.058823
138	H	0.468327	0.872357	0.058688
139	H	0.293181	0.799964	0.086779
140	H	0.348173	0.799528	0.086658
141	H	0.368266	0.672354	0.050298
142	H	0.395504	0.591854	0.050575
143	H	0.044834	0.60156	0.025038
144	H	0.497021	0.935013	0.025016
145	C	0.555963	0.565978	0.022868
146	C	0.588704	0.56828	0.021305
147	C	0.953227	0.96807	0.021296
148	C	0.985938	0.970463	0.022873
149	N	0.655271	0.768168	0.018699
150	C	0.639829	0.719393	0.020839
151	C	0.687546	0.768176	0.018708
152	C	0.635907	0.914407	0.0338
153	C	0.652351	0.865724	0.034094
154	C	0.605803	0.617667	0.022173
155	C	0.59361	0.665981	0.041719
156	C	0.610229	0.714477	0.041842
157	C	0.754318	0.768112	0.018706
158	C	0.736671	0.752589	0.057745
159	C	0.704149	0.752235	0.057657
160	H	0.60043	0.746706	0.058814
161	H	0.572843	0.666273	0.058669
162	H	0.747441	0.74013	0.0867
163	H	0.692451	0.740567	0.086579
164	H	0.673065	0.865742	0.050342
165	H	0.645828	0.946267	0.050594
166	N	0.886715	0.768024	0.018707
167	C	0.902111	0.816929	0.020829
168	C	0.854441	0.768012	0.018713
169	C	0.905757	0.622679	0.033761
170	C	0.889339	0.671414	0.034136
171	C	0.936113	0.918732	0.022152
172	C	0.947925	0.871598	0.041668
173	C	0.931284	0.823132	0.041852
174	C	0.787672	0.768072	0.018707
175	C	0.804532	0.785841	0.05779
176	C	0.837057	0.786194	0.057704
177	H	0.940742	0.79194	0.058823
178	H	0.968326	0.872357	0.058688
179	H	0.793179	0.799964	0.086779
180	H	0.848172	0.799528	0.086658
181	H	0.868266	0.672354	0.050298
182	H	0.895505	0.591854	0.050575
183	H	0.544834	0.60156	0.025038
184	H	0.997022	0.935013	0.025016
185	C	0.088752	0.467975	0.016141
186	C	0.05604	0.470237	0.014564
187	H	0.044834	0.101557	0.358369
188	H	0.044953	0.434645	0.012438
189	C	0.486026	0.0657	0.014571
190	C	0.453282	0.068058	0.016141
191	H	0.497157	0.101163	0.012445
192	H	0.497023	0.435013	0.358348
193	C	0.139876	0.31693	0.016558
194	C	0.110692	0.321808	0.995575
195	C	0.094056	0.370268	0.995748
196	C	0.105869	0.418607	0.015264
197	C	0.152638	0.170626	0.003261
198	C	0.136208	0.121902	0.003606
199	C	0.204949	0.284094	0.979759
200	C	0.237471	0.283675	0.979669
201	H	0.146456	0.090045	0.98682
202	H	0.173697	0.170606	0.987058
203	H	0.10122	0.289558	0.97863
204	H	0.073632	0.369943	0.978789
205	H	0.193845	0.295757	0.950828
206	H	0.248839	0.296097	0.95071
207	C	0.402154	0.219133	0.016579
208	C	0.431762	0.21298	0.995603
209	C	0.448391	0.164527	0.995769
210	C	0.436182	0.11737	0.015268
211	C	0.389654	0.364624	0.003251
212	C	0.406085	0.41336	0.003575
213	C	0.337826	0.249852	0.979721
214	C	0.305305	0.250269	0.979627
215	H	0.396157	0.444208	0.986827
216	H	0.368918	0.363659	0.987061
217	H	0.441569	0.244189	0.97864
218	H	0.469159	0.163823	0.978813
219	H	0.349512	0.236525	0.950762
220	H	0.294519	0.236183	0.950634
221	C	0.038087	0.0181	0.35206
222	C	0.055962	0.06598	0.356202
223	C	0.088705	0.068278	0.354638
224	C	0.103922	0.018134	0.352054
225	C	0.088752	0.467973	0.349472
226	C	0.05604	0.470238	0.347898
227	H	0.044834	0.101557	0.691704
228	H	0.044953	0.434646	0.345772
229	H	0.127292	0.018149	0.35206
230	C	0.503895	0.01809	0.35206
231	C	0.486025	0.0657	0.347905
232	C	0.453283	0.068058	0.349472
233	C	0.438062	0.018053	0.352047
234	C	0.453228	0.46807	0.354628
235	C	0.485937	0.470463	0.356205
236	H	0.497156	0.101163	0.345779
237	H	0.414691	0.018037	0.352047
238	H	0.497021	0.435012	0.691683
239	N	0.155271	0.268169	0.352033
240	C	0.139829	0.219392	0.354173
241	C	0.187546	0.268177	0.35204
242	C	0.139876	0.316931	0.349893
243	C	0.110692	0.321808	0.328908
244	C	0.094056	0.370268	0.329082
245	C	0.105869	0.418606	0.348599
246	C	0.135908	0.414407	0.367132
247	C	0.152351	0.365722	0.367425
248	C	0.152638	0.170626	0.336594
249	C	0.136208	0.121902	0.336938
250	C	0.105804	0.117665	0.355505
251	C	0.09361	0.165983	0.375052
252	C	0.110229	0.214477	0.375176
253	C	0.204949	0.284094	0.313093
254	C	0.237472	0.283674	0.313003
255	C	0.254318	0.268112	0.35204
256	C	0.236671	0.252589	0.391076
257	C	0.204149	0.252233	0.39099
258	H	0.146456	0.090045	0.320153
259	H	0.173697	0.170606	0.320394
260	H	0.100429	0.246706	0.392146
261	H	0.072842	0.166274	0.392004
262	H	0.10122	0.289558	0.311964
263	H	0.073632	0.369943	0.312122
264	H	0.193845	0.295757	0.284163
265	H	0.24884	0.296097	0.284043
266	H	0.24744	0.240129	0.420035
267	H	0.192452	0.240565	0.41991
268	H	0.173066	0.365742	0.383673
269	H	0.145827	0.446267	0.383928
270	N	0.386713	0.268022	0.35204
271	C	0.402112	0.31693	0.354162
272	C	0.354442	0.268011	0.352047
273	C	0.402153	0.219133	0.349914
274	C	0.431764	0.21298	0.328938
275	C	0.448393	0.164527	0.329101
276	C	0.436181	0.11737	0.348599
277	C	0.405758	0.122678	0.367094
278	C	0.389337	0.171414	0.36747
279	C	0.389653	0.364624	0.336584
280	C	0.406084	0.413359	0.336909
281	C	0.436113	0.418731	0.355484
282	C	0.447925	0.371598	0.375
283	C	0.431282	0.323134	0.375183
284	C	0.337825	0.249852	0.313054
285	C	0.305304	0.250269	0.312962
286	C	0.287671	0.268073	0.35204
287	C	0.304533	0.28584	0.391124
288	C	0.337056	0.286196	0.391038
289	H	0.396158	0.444209	0.32016
290	H	0.368917	0.363659	0.320394
291	H	0.440743	0.291938	0.392156
292	H	0.468327	0.372357	0.392021
293	H	0.441571	0.244189	0.311974
294	H	0.469158	0.163823	0.312145
295	H	0.349513	0.236525	0.284094
296	H	0.29452	0.236183	0.283967
297	H	0.29318	0.299964	0.420111
298	H	0.348173	0.299529	0.41999
299	H	0.368267	0.172353	0.383632
300	H	0.395504	0.091855	0.383908
301	C	0.038087	0.0181	0.685391
302	C	0.055962	0.06598	0.689533
303	C	0.088705	0.068278	0.687969
304	C	0.103922	0.018134	0.685388
305	C	0.088752	0.467972	0.682806
306	C	0.05604	0.470237	0.681233
307	H	0.044953	0.434645	0.679103
308	H	0.127292	0.018149	0.685391
309	C	0.503895	0.01809	0.685395
310	C	0.486025	0.0657	0.681236
311	C	0.453281	0.068058	0.682806
312	C	0.43806	0.018053	0.685381
313	C	0.453228	0.468069	0.687962
314	C	0.485938	0.470462	0.68954
315	H	0.497156	0.101163	0.679114
316	H	0.414692	0.018037	0.685378
317	N	0.155272	0.268169	0.685364
318	C	0.139829	0.219392	0.687503
319	C	0.187546	0.268177	0.685374
320	C	0.139877	0.316931	0.683227
321	C	0.110691	0.321808	0.662241
322	C	0.094056	0.370268	0.662413
323	C	0.105869	0.418607	0.68193
324	C	0.135908	0.414408	0.700466
325	C	0.152351	0.365722	0.700759
326	C	0.152638	0.170626	0.669927
327	C	0.136208	0.121902	0.670272
328	C	0.105804	0.117665	0.688839
329	C	0.093611	0.165983	0.708386
330	C	0.110229	0.214477	0.708507
331	C	0.204948	0.284094	0.646424
332	C	0.237473	0.283674	0.646335
333	C	0.254319	0.268112	0.685371
334	C	0.23667	0.252589	0.72441
335	C	0.204149	0.252233	0.724324
336	H	0.146456	0.090045	0.653485
337	H	0.173697	0.170606	0.653727
338	H	0.10043	0.246706	0.72548
339	H	0.072842	0.166274	0.725335
340	H	0.10122	0.289558	0.645296
341	H	0.073632	0.369943	0.645454
342	H	0.193845	0.295757	0.617497
343	H	0.248838	0.296097	0.617376
344	H	0.24744	0.240129	0.753366
345	H	0.192452	0.240565	0.753245
346	H	0.173066	0.365742	0.717008
347	H	0.145827	0.446266	0.717259
348	N	0.386714	0.268022	0.685374
349	C	0.402112	0.31693	0.687497
350	C	0.354442	0.268011	0.685378
351	C	0.402154	0.219133	0.683248
352	C	0.431764	0.21298	0.662272
353	C	0.448391	0.164527	0.662434
354	C	0.436181	0.11737	0.681933
355	C	0.405758	0.122678	0.700428
356	C	0.389338	0.171414	0.700801
357	C	0.389653	0.364624	0.669916
358	C	0.406084	0.41336	0.670241
359	C	0.436112	0.418732	0.688818
360	C	0.447926	0.371598	0.708335
361	C	0.431283	0.323134	0.708518
362	C	0.337825	0.249852	0.646386
363	C	0.305304	0.250269	0.646297
364	C	0.287671	0.268073	0.685374
365	C	0.304534	0.28584	0.724455
366	C	0.337057	0.286196	0.724369
367	H	0.396159	0.444209	0.653492
368	H	0.368917	0.363659	0.653727
369	H	0.440744	0.291938	0.72549
370	H	0.468327	0.372357	0.725356
371	H	0.441569	0.244189	0.645306
372	H	0.469158	0.163823	0.645479
373	H	0.349511	0.236525	0.617428
374	H	0.294519	0.236183	0.6173
375	H	0.293181	0.299964	0.753445
376	H	0.348173	0.299529	0.753324
377	H	0.368266	0.172353	0.716963
378	H	0.395504	0.091855	0.717242
379	C	0.588753	0.467975	0.016141
380	C	0.55604	0.470237	0.014564
381	H	0.544834	0.101557	0.358369
382	H	0.544952	0.434645	0.012438
383	C	0.986025	0.0657	0.014571
384	C	0.953283	0.068058	0.016141
385	H	0.997155	0.101163	0.012445
386	H	0.997021	0.435013	0.358348
387	C	0.639876	0.31693	0.016558
388	C	0.610692	0.321808	0.995575
389	C	0.594055	0.370268	0.995748
390	C	0.605868	0.418607	0.015264
391	C	0.652637	0.170626	0.003261
392	C	0.636209	0.121902	0.003606
393	C	0.704947	0.284094	0.979759
394	C	0.737472	0.283675	0.979669
395	H	0.646455	0.090045	0.98682
396	H	0.673697	0.170606	0.987058
397	H	0.601219	0.289558	0.97863
398	H	0.57363	0.369943	0.978789
399	H	0.693845	0.295757	0.950828
400	H	0.74884	0.296097	0.95071
401	C	0.902153	0.219133	0.016579
402	C	0.931763	0.21298	0.995603
403	C	0.948392	0.164527	0.995769
404	C	0.93618	0.11737	0.015268
405	C	0.889652	0.364624	0.003251
406	C	0.906083	0.41336	0.003575
407	C	0.837824	0.249852	0.979721
408	C	0.805303	0.250269	0.979627
409	H	0.896158	0.444208	0.986827
410	H	0.868916	0.363659	0.987061
411	H	0.94157	0.244189	0.97864
412	H	0.969158	0.163823	0.978813
413	H	0.849513	0.236525	0.950762
414	H	0.79452	0.236183	0.950634
415	C	0.538087	0.0181	0.35206
416	C	0.555962	0.06598	0.356202
417	C	0.588705	0.068278	0.354638
418	C	0.603922	0.018134	0.352054
419	C	0.588752	0.467973	0.349472
420	C	0.556039	0.470238	0.347898
421	H	0.544834	0.101557	0.691704
422	H	0.544953	0.434646	0.345772
423	H	0.62729	0.018149	0.35206
424	C	0.003896	0.01809	0.35206
425	C	0.986026	0.0657	0.347905
426	C	0.953282	0.068058	0.349472
427	C	0.938061	0.018053	0.352047
428	C	0.953226	0.46807	0.354628
429	C	0.985938	0.470463	0.356205
430	H	0.997157	0.101163	0.345779
431	H	0.914692	0.018037	0.352047
432	H	0.997022	0.435012	0.691683
433	N	0.655272	0.268169	0.352033
434	C	0.639828	0.219392	0.354173
435	C	0.687546	0.268177	0.35204
436	C	0.639875	0.316931	0.349893
437	C	0.610691	0.321808	0.328908
438	C	0.594056	0.370268	0.329082
439	C	0.605869	0.418606	0.348599
440	C	0.635909	0.414407	0.367132
441	C	0.65235	0.365722	0.367425
442	C	0.652639	0.170626	0.336594
443	C	0.636208	0.121902	0.336938
444	C	0.605805	0.117665	0.355505
445	C	0.59361	0.165983	0.375052
446	C	0.610229	0.214477	0.375176
447	C	0.704948	0.284094	0.313093
448	C	0.737471	0.283674	0.313003
449	C	0.754319	0.268112	0.35204
450	C	0.73667	0.252589	0.391076
451	C	0.704149	0.252233	0.39099
452	H	0.646456	0.090045	0.320153
453	H	0.673695	0.170606	0.320394
454	H	0.600429	0.246706	0.392146
455	H	0.572842	0.166274	0.392004
456	H	0.60122	0.289558	0.311964
457	H	0.573631	0.369943	0.312122
458	H	0.693846	0.295757	0.284163
459	H	0.748839	0.296097	0.284043
460	H	0.747441	0.240129	0.420035
461	H	0.692451	0.240565	0.41991
462	H	0.673067	0.365742	0.383673
463	H	0.645827	0.446267	0.383928
464	N	0.886714	0.268022	0.35204
465	C	0.90211	0.31693	0.354162
466	C	0.85444	0.268011	0.352047
467	C	0.902154	0.219133	0.349914
468	C	0.931762	0.21298	0.328938
469	C	0.948391	0.164527	0.329101
470	C	0.936182	0.11737	0.348599
471	C	0.905756	0.122678	0.367094
472	C	0.889338	0.171414	0.36747
473	C	0.889653	0.364624	0.336584
474	C	0.906084	0.413359	0.336909
475	C	0.936112	0.418731	0.355484
476	C	0.947924	0.371598	0.375
477	C	0.931283	0.323134	0.375183
478	C	0.837825	0.249852	0.313054
479	C	0.805304	0.250269	0.312962
480	C	0.787672	0.268073	0.35204
481	C	0.804534	0.28584	0.391124
482	C	0.837057	0.286196	0.391038
483	H	0.896157	0.444209	0.32016
484	H	0.868917	0.363659	0.320394
485	H	0.940744	0.291938	0.392156
486	H	0.968327	0.372357	0.392021
487	H	0.941569	0.244189	0.311974
488	H	0.969159	0.163823	0.312145
489	H	0.849511	0.236525	0.284094
490	H	0.794519	0.236183	0.283967
491	H	0.793179	0.299964	0.420111
492	H	0.848171	0.299529	0.41999
493	H	0.868266	0.172353	0.383632
494	H	0.895505	0.091855	0.383908
495	C	0.538087	0.0181	0.685391
496	C	0.555963	0.06598	0.689533
497	C	0.588704	0.068278	0.687969
498	C	0.603922	0.018134	0.685388
499	C	0.588752	0.467972	0.682806
500	C	0.55604	0.470237	0.681233
501	H	0.544954	0.434645	0.679103
502	H	0.627291	0.018149	0.685391
503	C	0.003896	0.01809	0.685395
504	C	0.986026	0.0657	0.681236
505	C	0.953282	0.068058	0.682806
506	C	0.938061	0.018053	0.685381
507	C	0.953227	0.468069	0.687962
508	C	0.985938	0.470462	0.68954
509	H	0.997157	0.101163	0.679114
510	H	0.91469	0.018037	0.685378
511	N	0.655271	0.268169	0.685364
512	C	0.639829	0.219392	0.687503
513	C	0.687546	0.268177	0.685374
514	C	0.639876	0.316931	0.683227
515	C	0.610691	0.321808	0.662241
516	C	0.594057	0.370268	0.662413
517	C	0.605868	0.418607	0.68193
518	C	0.635907	0.414408	0.700466
519	C	0.652351	0.365722	0.700759
520	C	0.652639	0.170626	0.669927
521	C	0.636208	0.121902	0.670272
522	C	0.605803	0.117665	0.688839
523	C	0.59361	0.165983	0.708386
524	C	0.610229	0.214477	0.708507
525	C	0.704949	0.284094	0.646424
526	C	0.737472	0.283674	0.646335
527	C	0.754318	0.268112	0.685371
528	C	0.736671	0.252589	0.72441
529	C	0.704149	0.252233	0.724324
530	H	0.646455	0.090045	0.653485
531	H	0.673696	0.170606	0.653727
532	H	0.60043	0.246706	0.72548
533	H	0.572843	0.166274	0.725335
534	H	0.60122	0.289558	0.645296
535	H	0.573632	0.369943	0.645454
536	H	0.693844	0.295757	0.617497
537	H	0.748839	0.296097	0.617376
538	H	0.747441	0.240129	0.753366
539	H	0.692451	0.240565	0.753245
540	H	0.673065	0.365742	0.717008
541	H	0.645828	0.446266	0.717259
542	N	0.886715	0.268022	0.685374
543	C	0.902111	0.31693	0.687497
544	C	0.854441	0.268011	0.685378
545	C	0.902154	0.219133	0.683248
546	C	0.931763	0.21298	0.662272
547	C	0.948392	0.164527	0.662434
548	C	0.936182	0.11737	0.681933
549	C	0.905757	0.122678	0.700428
550	C	0.889336	0.171414	0.700801
551	C	0.889654	0.364624	0.669916
552	C	0.906083	0.41336	0.670241
553	C	0.936113	0.418732	0.688818
554	C	0.947925	0.371598	0.708335
555	C	0.931284	0.323134	0.708518
556	C	0.837826	0.249852	0.646386
557	C	0.805303	0.250269	0.646297
558	C	0.787672	0.268073	0.685374
559	C	0.804532	0.28584	0.724455
560	C	0.837057	0.286196	0.724369
561	H	0.896157	0.444209	0.653492
562	H	0.868918	0.363659	0.653727
563	H	0.940743	0.291938	0.72549
564	H	0.968326	0.372357	0.725356
565	H	0.94157	0.244189	0.645306
566	H	0.969157	0.163823	0.645479
567	H	0.849512	0.236525	0.617428
568	H	0.79452	0.236183	0.6173
569	H	0.793179	0.299964	0.753445
570	H	0.848172	0.299529	0.753324
571	H	0.868266	0.172353	0.716963
572	H	0.895505	0.091855	0.717242
573	C	0.038087	0.5181	0.35206
574	C	0.103922	0.518136	0.352054
575	H	0.127292	0.518148	0.35206
576	C	0.503896	0.518092	0.35206
577	C	0.438061	0.518052	0.352047
578	H	0.414692	0.518036	0.352047
579	C	0.038087	0.518099	0.685391
580	C	0.103922	0.518135	0.685388
581	H	0.127292	0.518147	0.685391
582	C	0.503897	0.518091	0.685395
583	C	0.438062	0.518055	0.685381
584	H	0.414691	0.518039	0.685378
585	C	0.538088	0.5181	0.35206
586	C	0.603921	0.518136	0.352054
587	H	0.627292	0.518148	0.35206
588	C	0.003895	0.518092	0.35206
589	C	0.938062	0.518052	0.352047
590	H	0.914691	0.518036	0.352047
591	C	0.538086	0.518099	0.685391
592	C	0.603921	0.518135	0.685388
593	H	0.627292	0.518147	0.685391
594	C	0.003895	0.518091	0.685395
595	C	0.93806	0.518055	0.685381
596	H	0.914692	0.518039	0.685378
597	C	0.088752	0.967975	0.016141
598	C	0.05604	0.970236	0.014564
599	H	0.044834	0.601559	0.358369
600	H	0.044953	0.934644	0.012438
601	C	0.486025	0.565699	0.014571
602	C	0.453283	0.568061	0.016141
603	H	0.497156	0.601162	0.012445
604	H	0.497021	0.935013	0.358348
605	C	0.139876	0.816932	0.016558
606	C	0.110691	0.821809	0.995575
607	C	0.094056	0.870266	0.995748
608	C	0.105869	0.918608	0.015264
609	C	0.152638	0.670624	0.003261
610	C	0.136208	0.621903	0.003606
611	C	0.204948	0.784096	0.979759
612	C	0.237472	0.783677	0.979669
613	H	0.146456	0.590043	0.98682
614	H	0.173697	0.670607	0.987058
615	H	0.10122	0.789557	0.97863
616	H	0.073632	0.869942	0.978789
617	H	0.193845	0.795759	0.950828
618	H	0.24884	0.796096	0.95071
619	C	0.402153	0.719133	0.016579
620	C	0.431764	0.712979	0.995603
621	C	0.448393	0.664528	0.995769
622	C	0.436181	0.61737	0.015268
623	C	0.389653	0.864623	0.003251
624	C	0.406084	0.913361	0.003575
625	C	0.337825	0.749852	0.979721
626	C	0.305304	0.750269	0.979627
627	H	0.396158	0.944207	0.986827
628	H	0.368916	0.863658	0.987061
629	H	0.441571	0.744191	0.97864
630	H	0.469158	0.663824	0.978813
631	H	0.349513	0.736526	0.950762
632	H	0.29452	0.736182	0.950634
633	C	0.055962	0.565982	0.356202
634	C	0.088705	0.56828	0.354638
635	C	0.088752	0.967972	0.349472
636	C	0.05604	0.970238	0.347898
637	H	0.044834	0.601558	0.691704
638	H	0.044953	0.934646	0.345772
639	C	0.486026	0.565701	0.347905
640	C	0.453282	0.568058	0.349472
641	C	0.453227	0.968069	0.354628
642	C	0.485938	0.970463	0.356205
643	H	0.497157	0.601164	0.345779
644	H	0.497022	0.935012	0.691683
645	N	0.155271	0.768171	0.352033
646	C	0.139829	0.719392	0.354173
647	C	0.187546	0.768175	0.35204
648	C	0.139876	0.81693	0.349893
649	C	0.110691	0.821807	0.328908
650	C	0.094056	0.870268	0.329082
651	C	0.105869	0.918609	0.348599
652	C	0.135908	0.91441	0.367132
653	C	0.152351	0.865723	0.367425
654	C	0.152638	0.670626	0.336594
655	C	0.136208	0.6219	0.336938
656	C	0.105804	0.617666	0.355505
657	C	0.09361	0.665984	0.375052
658	C	0.110229	0.714476	0.375176
659	C	0.204948	0.784093	0.313093
660	C	0.237471	0.783674	0.313003
661	C	0.25432	0.768111	0.35204
662	C	0.23667	0.752589	0.391076
663	C	0.204149	0.752234	0.39099
664	H	0.146456	0.590045	0.320153
665	H	0.173697	0.670605	0.320394
666	H	0.10043	0.746705	0.392146
667	H	0.072842	0.666276	0.392004
668	H	0.10122	0.789558	0.311964
669	H	0.073632	0.869944	0.312122
670	H	0.193845	0.795757	0.284163
671	H	0.248839	0.796097	0.284043
672	H	0.247441	0.740129	0.420035
673	H	0.192452	0.740566	0.41991
674	H	0.173066	0.865742	0.383673
675	H	0.145827	0.946266	0.383928
676	N	0.386714	0.768023	0.35204
677	C	0.402111	0.816932	0.354162
678	C	0.354441	0.768012	0.352047
679	C	0.402154	0.719135	0.349914
680	C	0.431762	0.712981	0.328938
681	C	0.448391	0.664526	0.329101
682	C	0.436182	0.617372	0.348599
683	C	0.405757	0.622678	0.367094
684	C	0.389338	0.671413	0.36747
685	C	0.389654	0.864624	0.336584
686	C	0.406085	0.913362	0.336909
687	C	0.436112	0.918735	0.355484
688	C	0.447924	0.871598	0.375
689	C	0.431284	0.823135	0.375183
690	C	0.337826	0.749854	0.313054
691	C	0.305305	0.750271	0.312962
692	C	0.287672	0.768075	0.35204
693	C	0.304534	0.78584	0.391124
694	C	0.337057	0.786197	0.391038
695	H	0.396157	0.944209	0.32016
696	H	0.368918	0.863659	0.320394
697	H	0.440745	0.791939	0.392156
698	H	0.468328	0.872356	0.392021
699	H	0.441569	0.744189	0.311974
700	H	0.469159	0.663822	0.312145
701	H	0.349512	0.736524	0.284094
702	H	0.294519	0.736184	0.283967
703	H	0.293179	0.799963	0.420111
704	H	0.348172	0.799531	0.41999
705	H	0.368266	0.672354	0.383632
706	H	0.395505	0.591853	0.383908
707	C	0.055962	0.565981	0.689533
708	C	0.088705	0.568279	0.687969
709	C	0.088752	0.967975	0.682806
710	C	0.05604	0.970237	0.681233
711	H	0.044953	0.934645	0.679103
712	C	0.486027	0.5657	0.681236
713	C	0.453282	0.568057	0.682806
714	C	0.453227	0.968068	0.687962
715	C	0.485939	0.970462	0.68954
716	H	0.497157	0.601163	0.679114
717	N	0.155272	0.76817	0.685364
718	C	0.139829	0.719391	0.687503
719	C	0.187546	0.768179	0.685374
720	C	0.139877	0.816929	0.683227
721	C	0.110692	0.82181	0.662241
722	C	0.094056	0.870267	0.662413
723	C	0.105868	0.918608	0.68193
724	C	0.135908	0.914409	0.700466
725	C	0.152351	0.865723	0.700759
726	C	0.152638	0.670625	0.669927
727	C	0.136208	0.621903	0.670272
728	C	0.105804	0.617665	0.688839
729	C	0.093611	0.665984	0.708386
730	C	0.110229	0.714479	0.708507
731	C	0.204948	0.784092	0.646424
732	C	0.237472	0.783673	0.646335
733	C	0.254318	0.768114	0.685371
734	C	0.236671	0.752588	0.72441
735	C	0.204149	0.752233	0.724324
736	H	0.146456	0.590044	0.653485
737	H	0.173697	0.670608	0.653727
738	H	0.10043	0.746708	0.72548
739	H	0.072842	0.666275	0.725335
740	H	0.10122	0.789558	0.645296
741	H	0.073632	0.869943	0.645454
742	H	0.193845	0.795756	0.617497
743	H	0.248839	0.796097	0.617376
744	H	0.247442	0.740128	0.753366
745	H	0.192452	0.740565	0.753245
746	H	0.173066	0.865741	0.717008
747	H	0.145827	0.946265	0.717259
748	N	0.386715	0.768023	0.685374
749	C	0.402111	0.816931	0.687497
750	C	0.354441	0.768011	0.685378
751	C	0.402155	0.719134	0.683248
752	C	0.431763	0.71298	0.662272
753	C	0.448392	0.664529	0.662434
754	C	0.436182	0.617371	0.681933
755	C	0.405757	0.622677	0.700428
756	C	0.389337	0.671412	0.700801
757	C	0.389654	0.864624	0.669916
758	C	0.406083	0.913361	0.670241
759	C	0.436113	0.918734	0.688818
760	C	0.447925	0.871597	0.708335
761	C	0.431284	0.823135	0.708518
762	C	0.337826	0.749853	0.646386
763	C	0.305303	0.75027	0.646297
764	C	0.287672	0.768075	0.685374
765	C	0.304532	0.785839	0.724455
766	C	0.337058	0.786197	0.724369
767	H	0.396157	0.944208	0.653492
768	H	0.368918	0.863659	0.653727
769	H	0.440743	0.791938	0.72549
770	H	0.468326	0.872359	0.725356
771	H	0.44157	0.744188	0.645306
772	H	0.469157	0.663825	0.645479
773	H	0.349512	0.736527	0.617428
774	H	0.29452	0.736183	0.6173
775	H	0.29318	0.799962	0.753445
776	H	0.348172	0.79953	0.753324
777	H	0.368267	0.672353	0.716963
778	H	0.395503	0.591856	0.717242
779	C	0.588752	0.967975	0.016141
780	C	0.556039	0.970236	0.014564
781	H	0.544835	0.601559	0.358369
782	H	0.544953	0.934644	0.012438
783	C	0.986026	0.565699	0.014571
784	C	0.953282	0.568061	0.016141
785	H	0.997156	0.601162	0.012445
786	H	0.997022	0.935013	0.358348
787	C	0.639875	0.816932	0.016558
788	C	0.610691	0.821809	0.995575
789	C	0.594056	0.870266	0.995748
790	C	0.605869	0.918608	0.015264
791	C	0.652639	0.670624	0.003261
792	C	0.636208	0.621903	0.003606
793	C	0.704948	0.784096	0.979759
794	C	0.737471	0.783677	0.979669
795	H	0.646456	0.590043	0.98682
796	H	0.673695	0.670607	0.987058
797	H	0.60122	0.789557	0.97863
798	H	0.573631	0.869942	0.978789
799	H	0.693846	0.795759	0.950828
800	H	0.748839	0.796096	0.95071
801	C	0.902154	0.719133	0.016579
802	C	0.931762	0.712979	0.995603
803	C	0.948391	0.664528	0.995769
804	C	0.936182	0.61737	0.015268
805	C	0.889653	0.864623	0.003251
806	C	0.906084	0.913361	0.003575
807	C	0.837825	0.749852	0.979721
808	C	0.805304	0.750269	0.979627
809	H	0.896157	0.944207	0.986827
810	H	0.868917	0.863658	0.987061
811	H	0.941569	0.744191	0.97864
812	H	0.969159	0.663824	0.978813
813	H	0.849511	0.736526	0.950762
814	H	0.794519	0.736182	0.950634
815	C	0.555961	0.565982	0.356202
816	C	0.588704	0.56828	0.354638
817	C	0.588753	0.967972	0.349472
818	C	0.55604	0.970238	0.347898
819	H	0.544833	0.601558	0.691704
820	H	0.544952	0.934646	0.345772
821	C	0.986025	0.565701	0.347905
822	C	0.953283	0.568058	0.349472
823	C	0.953228	0.968069	0.354628
824	C	0.985939	0.970463	0.356205
825	H	0.997155	0.601164	0.345779
826	H	0.99702	0.935012	0.691683
827	N	0.655271	0.768171	0.352033
828	C	0.63983	0.719392	0.354173
829	C	0.687547	0.768175	0.35204
830	C	0.639876	0.81693	0.349893
831	C	0.610692	0.821807	0.328908
832	C	0.594055	0.870268	0.329082
833	C	0.605868	0.918609	0.348599
834	C	0.635908	0.91441	0.367132
835	C	0.652351	0.865723	0.367425
836	C	0.652637	0.670626	0.336594
837	C	0.636209	0.6219	0.336938
838	C	0.605804	0.617666	0.355505
839	C	0.593611	0.665984	0.375052
840	C	0.610228	0.714476	0.375176
841	C	0.704949	0.784093	0.313093
842	C	0.737472	0.783674	0.313003
843	C	0.754318	0.768111	0.35204
844	C	0.736671	0.752589	0.391076
845	C	0.704148	0.752234	0.39099
846	H	0.646455	0.590045	0.320153
847	H	0.673697	0.670605	0.320394
848	H	0.600428	0.746705	0.392146
849	H	0.572843	0.666276	0.392004
850	H	0.601219	0.789558	0.311964
851	H	0.57363	0.869944	0.312122
852	H	0.693845	0.795757	0.284163
853	H	0.74884	0.796097	0.284043
854	H	0.747439	0.740129	0.420035
855	H	0.692452	0.740566	0.41991
856	H	0.673066	0.865742	0.383673
857	H	0.645826	0.946266	0.383928
858	N	0.886713	0.768023	0.35204
859	C	0.902112	0.816932	0.354162
860	C	0.854441	0.768012	0.352047
861	C	0.902155	0.719135	0.349914
862	C	0.931763	0.712981	0.328938
863	C	0.948392	0.664526	0.329101
864	C	0.93618	0.617372	0.348599
865	C	0.905757	0.622678	0.367094
866	C	0.889337	0.671413	0.36747
867	C	0.889655	0.864624	0.336584
868	C	0.906083	0.913362	0.336909
869	C	0.936113	0.918735	0.355484
870	C	0.947925	0.871598	0.375
871	C	0.931282	0.823135	0.375183
872	C	0.837824	0.749854	0.313054
873	C	0.805303	0.750271	0.312962
874	C	0.78767	0.768075	0.35204
875	C	0.804533	0.78584	0.391124
876	C	0.837056	0.786197	0.391038
877	H	0.896158	0.944209	0.32016
878	H	0.868916	0.863659	0.320394
879	H	0.940743	0.791939	0.392156
880	H	0.968326	0.872356	0.392021
881	H	0.94157	0.744189	0.311974
882	H	0.969158	0.663822	0.312145
883	H	0.849513	0.736524	0.284094
884	H	0.79452	0.736184	0.283967
885	H	0.79318	0.799963	0.420111
886	H	0.848173	0.799531	0.41999
887	H	0.868267	0.672354	0.383632
888	H	0.895504	0.591853	0.383908
889	C	0.555962	0.565981	0.689533
890	C	0.588705	0.568279	0.687969
891	C	0.588751	0.967975	0.682806
892	C	0.556041	0.970237	0.681233
893	H	0.544953	0.934645	0.679103
894	C	0.986025	0.5657	0.681236
895	C	0.953281	0.568057	0.682806
896	C	0.953228	0.968068	0.687962
897	C	0.985937	0.970462	0.68954
898	H	0.997156	0.601163	0.679114
899	N	0.655272	0.76817	0.685364
900	C	0.63983	0.719391	0.687503
901	C	0.687545	0.768179	0.685374
902	C	0.639877	0.816929	0.683227
903	C	0.61069	0.82181	0.662241
904	C	0.594056	0.870267	0.662413
905	C	0.605869	0.918608	0.68193
906	C	0.635908	0.914409	0.700466
907	C	0.652352	0.865723	0.700759
908	C	0.652638	0.670625	0.669927
909	C	0.636207	0.621903	0.670272
910	C	0.605804	0.617665	0.688839
911	C	0.593611	0.665984	0.708386
912	C	0.610228	0.714479	0.708507
913	C	0.704948	0.784092	0.646424
914	C	0.737473	0.783673	0.646335
915	C	0.754319	0.768114	0.685371
916	C	0.736669	0.752588	0.72441
917	C	0.704148	0.752233	0.724324
918	H	0.646456	0.590044	0.653485
919	H	0.673697	0.670608	0.653727
920	H	0.600429	0.746708	0.72548
921	H	0.572841	0.666275	0.725335
922	H	0.601219	0.789558	0.645296
923	H	0.573631	0.869943	0.645454
924	H	0.693845	0.795756	0.617497
925	H	0.748838	0.796097	0.617376
926	H	0.74744	0.740128	0.753366
927	H	0.692452	0.740565	0.753245
928	H	0.673066	0.865741	0.717008
929	H	0.645827	0.946265	0.717259
930	N	0.886713	0.768023	0.685374
931	C	0.902112	0.816931	0.687497
932	C	0.854442	0.768011	0.685378
933	C	0.902153	0.719134	0.683248
934	C	0.931764	0.71298	0.662272
935	C	0.948391	0.664529	0.662434
936	C	0.936181	0.617371	0.681933
937	C	0.905758	0.622677	0.700428
938	C	0.889338	0.671412	0.700801
939	C	0.889653	0.864624	0.669916
940	C	0.906084	0.913361	0.670241
941	C	0.936111	0.918734	0.688818
942	C	0.947926	0.871597	0.708335
943	C	0.931283	0.823135	0.708518
944	C	0.837825	0.749853	0.646386
945	C	0.805304	0.75027	0.646297
946	C	0.787671	0.768075	0.685374
947	C	0.804533	0.785839	0.724455
948	C	0.837056	0.786197	0.724369
949	H	0.896158	0.944208	0.653492
950	H	0.868917	0.863659	0.653727
951	H	0.940744	0.791938	0.72549
952	H	0.968327	0.872359	0.725356
953	H	0.941569	0.744188	0.645306
954	H	0.969158	0.663825	0.645479
955	H	0.849511	0.736527	0.617428
956	H	0.794518	0.736183	0.6173
957	H	0.793181	0.799962	0.753445
958	H	0.848173	0.79953	0.753324
959	H	0.868265	0.672353	0.716963
960	H	0.895504	0.591856	0.717242
