data_C720H432O72_2018-02-15_10:39:15
#******************************************
#
# CIF file created by Zeo++
# Zeo++ is an open source package to
# analyze microporous materials
#
#*******************************************

_cell_length_a		45.5588   
_cell_length_b		45.5801   
_cell_length_c		29.7112   
_cell_angle_alpha		90   
_cell_angle_beta		90   
_cell_angle_gamma		119.989   

_symmetry_space_group_name_H-M		'P1'
_symmetry_Int_Tables_number		1
_symmetry_cell_setting		Monoclinic

loop_
_symmetry_equiv_pos_as_xyz
'+x,+y,+z'

loop_
_atom_site_label
_atom_site_type_symbol
_atom_site_fract_x
_atom_site_fract_y
_atom_site_fract_z
1	C	0.04096	0.021554	0.004824
2	C	0.02246	0.038956	0.004875
3	C	0.022394	0.485669	0.004834
4	H	0.035351	0.472677	0.004693
5	H	0.035457	0.064896	0.004763
6	C	0.077334	0.039707	0.004376
7	C	0.096209	0.030993	0.033788
8	H	0.084056	0.011845	0.056668
9	C	0.095734	0.066973	0.307648
10	H	0.083036	0.07357	0.285096
11	C	0.04096	0.021554	0.338159
12	C	0.02246	0.038956	0.338209
13	C	0.022394	0.485669	0.338169
14	H	0.035351	0.472677	0.338028
15	H	0.035457	0.064896	0.338098
16	C	0.077334	0.039707	0.337711
17	C	0.096209	0.030993	0.367121
18	H	0.084056	0.011845	0.390001
19	C	0.095734	0.066973	0.640981
20	H	0.083036	0.07357	0.618431
21	C	0.04096	0.021554	0.671491
22	C	0.02246	0.038956	0.671542
23	C	0.022394	0.485669	0.671502
24	H	0.035351	0.472677	0.67136
25	H	0.035457	0.064896	0.671431
26	C	0.077334	0.039707	0.671044
27	C	0.096209	0.030993	0.700454
28	H	0.084056	0.011845	0.723334
29	C	0.095734	0.066973	0.974314
30	H	0.083036	0.07357	0.951763
31	C	0.04096	0.521553	0.004824
32	C	0.02246	0.538955	0.004875
33	C	0.022396	0.98567	0.004834
34	H	0.035352	0.972676	0.004693
35	H	0.035458	0.564896	0.004763
36	C	0.077334	0.539707	0.004376
37	C	0.09621	0.530993	0.033789
38	H	0.084056	0.511843	0.056668
39	C	0.095734	0.566973	0.307648
40	H	0.083036	0.573569	0.285096
41	C	0.04096	0.521553	0.338159
42	C	0.02246	0.538955	0.338209
43	C	0.022396	0.98567	0.338169
44	H	0.035352	0.972676	0.338028
45	H	0.035458	0.564896	0.338098
46	C	0.077334	0.539707	0.337711
47	C	0.09621	0.530993	0.367121
48	H	0.084056	0.511843	0.390001
49	C	0.095734	0.566973	0.640981
50	H	0.083036	0.573569	0.618431
51	C	0.04096	0.521553	0.671491
52	C	0.02246	0.538955	0.671542
53	C	0.022396	0.98567	0.671502
54	H	0.035352	0.972676	0.67136
55	H	0.035458	0.564896	0.671431
56	C	0.077334	0.539707	0.671044
57	C	0.09621	0.530993	0.700454
58	H	0.084056	0.511843	0.723334
59	C	0.095734	0.566973	0.974314
60	H	0.083036	0.573569	0.951763
61	C	0.131918	0.049027	0.033505
62	C	0.150392	0.076411	0.3369
63	C	0.131519	0.084835	0.306712
64	H	0.144381	0.042296	0.056256
65	O	0.146887	0.109959	0.275602
66	H	0.153531	0.100355	0.250608
67	C	0.131918	0.049027	0.366838
68	C	0.150392	0.076411	0.670233
69	C	0.131519	0.084835	0.640045
70	H	0.144381	0.042296	0.389587
71	O	0.146887	0.109959	0.608936
72	H	0.153531	0.100355	0.583942
73	C	0.131918	0.049027	0.700171
74	C	0.150392	0.076411	0.003565
75	C	0.131519	0.084835	0.973378
76	H	0.144381	0.042296	0.72292
77	O	0.146887	0.109959	0.942268
78	H	0.153531	0.100355	0.917274
79	C	0.131918	0.549026	0.033505
80	C	0.150393	0.576411	0.3369
81	C	0.131518	0.584834	0.306712
82	H	0.144381	0.542296	0.056255
83	O	0.146888	0.609959	0.275602
84	H	0.153531	0.600354	0.250608
85	C	0.131918	0.549026	0.366838
86	C	0.150393	0.576411	0.670233
87	C	0.131518	0.584834	0.640045
88	H	0.144381	0.542296	0.389587
89	O	0.146888	0.609959	0.608936
90	H	0.153531	0.600354	0.583942
91	C	0.131918	0.549026	0.700171
92	C	0.150393	0.576411	0.003565
93	C	0.131518	0.584834	0.973378
94	H	0.144381	0.542296	0.72292
95	O	0.146888	0.609959	0.942268
96	H	0.153531	0.600354	0.917274
97	C	0.205317	0.130601	0.005005
98	C	0.186791	0.094585	0.004171
99	C	0.205265	0.077017	0.004336
100	H	0.192729	0.143938	0.005968
101	H	0.19264	0.051095	0.003414
102	C	0.205317	0.130601	0.338337
103	C	0.186791	0.094585	0.337503
104	C	0.205265	0.077017	0.337671
105	H	0.192729	0.143938	0.3393
106	H	0.19264	0.051095	0.336745
107	C	0.205317	0.130601	0.671673
108	C	0.186791	0.094585	0.670835
109	C	0.205265	0.077017	0.671003
110	H	0.192729	0.143938	0.672632
111	H	0.19264	0.051095	0.670081
112	C	0.205318	0.630601	0.005006
113	C	0.18679	0.594583	0.004171
114	C	0.205265	0.577017	0.004336
115	H	0.192729	0.643938	0.005968
116	H	0.19264	0.551096	0.003414
117	C	0.205318	0.630601	0.338337
118	C	0.18679	0.594583	0.337503
119	C	0.205265	0.577017	0.337671
120	H	0.192729	0.643938	0.3393
121	H	0.19264	0.551096	0.336745
122	C	0.205318	0.630601	0.671673
123	C	0.18679	0.594583	0.670835
124	C	0.205265	0.577017	0.671003
125	H	0.192729	0.643938	0.672632
126	H	0.19264	0.551096	0.670081
127	C	0.486564	0.021637	0.004858
128	C	0.469155	0.485748	0.004848
129	C	0.486486	0.46718	0.004814
130	H	0.443204	0.472809	0.00471
131	C	0.241056	0.094657	0.004952
132	C	0.258501	0.130368	0.005301
133	C	0.241102	0.14869	0.005309
134	H	0.284535	0.143361	0.005669
135	C	0.413663	0.148789	0.004976
136	C	0.377934	0.130521	0.005292
137	C	0.359607	0.094816	0.005276
138	C	0.377696	0.077127	0.004933
139	C	0.413728	0.094613	0.004127
140	C	0.43131	0.130643	0.004363
141	H	0.364347	0.051211	0.005854
142	H	0.457245	0.143932	0.003474
143	H	0.364932	0.143551	0.005661
144	C	0.359452	0.267157	0.005066
145	C	0.377739	0.249719	0.005455
146	C	0.413463	0.267104	0.005399
147	C	0.431145	0.302871	0.004998
148	C	0.41364	0.321398	0.004171
149	C	0.377593	0.302934	0.00441
150	H	0.457071	0.315445	0.005899
151	H	0.364286	0.315559	0.003515
152	H	0.364709	0.223699	0.005879
153	C	0.46843	0.039872	0.00443
154	C	0.477137	0.067412	0.033912
155	C	0.459179	0.08516	0.033575
156	C	0.431872	0.076365	0.336856
157	C	0.423446	0.049107	0.306614
158	H	0.46592	0.104337	0.056343
159	H	0.496269	0.07436	0.05682
160	C	0.441224	0.031105	0.307609
161	H	0.434651	0.011864	0.28499
162	O	0.398394	0.039467	0.275398
163	H	0.408092	0.055761	0.250472
164	C	0.468263	0.430818	0.004373
165	C	0.440667	0.411967	0.033779
166	C	0.422971	0.376274	0.033486
167	C	0.431867	0.357785	0.33688
168	C	0.45917	0.376634	0.306693
169	H	0.403783	0.363834	0.056247
170	H	0.433677	0.424128	0.056661
171	C	0.47713	0.412403	0.307659
172	H	0.496403	0.425078	0.285077
173	O	0.468915	0.361255	0.275572
174	H	0.452654	0.354621	0.250591
175	C	0.323681	0.078781	0.338876
176	C	0.306998	0.077111	0.298015
177	C	0.276024	0.07698	0.297977
178	C	0.26095	0.078594	0.005473
179	C	0.276079	0.07728	0.046629
180	H	0.267318	0.080706	0.267951
181	H	0.319497	0.080808	0.26805
182	C	0.307217	0.077626	0.046392
183	H	0.319961	0.081547	0.076202
184	O	0.265096	0.082505	0.086883
185	H	0.243556	0.061758	0.093354
186	C	0.429538	0.24723	0.338994
187	C	0.431154	0.232265	0.298092
188	C	0.431236	0.201413	0.298053
189	C	0.429703	0.184737	0.005533
190	C	0.430945	0.201126	0.04672
191	H	0.427675	0.189021	0.268027
192	H	0.427555	0.241106	0.268097
193	C	0.430588	0.2319	0.046513
194	H	0.426725	0.240724	0.07636
195	O	0.42583	0.1849	0.08693
196	H	0.446712	0.18435	0.093417
197	C	0.260976	0.184612	0.338967
198	C	0.276047	0.201231	0.298103
199	C	0.306919	0.232162	0.298152
200	C	0.323487	0.247268	0.005732
201	C	0.306944	0.232163	0.046824
202	H	0.319486	0.240839	0.268208
203	H	0.267454	0.188697	0.268127
204	C	0.276144	0.201063	0.046523
205	H	0.267249	0.188331	0.076319
206	O	0.323105	0.243255	0.087076
207	H	0.323679	0.264692	0.093515
208	C	0.486564	0.021637	0.338189
209	C	0.469155	0.485748	0.338179
210	C	0.486486	0.46718	0.338149
211	H	0.443204	0.472809	0.338045
212	C	0.241056	0.094657	0.338283
213	C	0.258501	0.130368	0.338634
214	C	0.241102	0.14869	0.33864
215	H	0.284535	0.143361	0.339
216	C	0.413663	0.148789	0.33831
217	C	0.377934	0.130521	0.338623
218	C	0.359607	0.094816	0.33861
219	C	0.377696	0.077127	0.338267
220	C	0.413728	0.094613	0.337462
221	C	0.43131	0.130643	0.337698
222	H	0.364347	0.051211	0.339189
223	H	0.457245	0.143932	0.336809
224	H	0.364932	0.143551	0.338994
225	C	0.359452	0.267157	0.338398
226	C	0.377739	0.249719	0.338788
227	C	0.413463	0.267104	0.338731
228	C	0.431145	0.302871	0.338331
229	C	0.41364	0.321398	0.337506
230	C	0.377593	0.302934	0.337745
231	H	0.457071	0.315445	0.339233
232	H	0.364286	0.315559	0.33685
233	H	0.364709	0.223699	0.339212
234	C	0.46843	0.039872	0.337765
235	C	0.477137	0.067412	0.367246
236	C	0.459179	0.08516	0.366909
237	C	0.431872	0.076365	0.670189
238	C	0.423446	0.049107	0.639948
239	H	0.46592	0.104337	0.389675
240	H	0.496269	0.07436	0.390153
241	C	0.441224	0.031105	0.640941
242	H	0.434651	0.011864	0.618323
243	O	0.398394	0.039467	0.608731
244	H	0.408092	0.055761	0.583807
245	C	0.468263	0.430818	0.337708
246	C	0.440667	0.411967	0.367111
247	C	0.422971	0.376274	0.366818
248	C	0.431867	0.357785	0.670212
249	C	0.45917	0.376634	0.640025
250	H	0.403783	0.363834	0.389581
251	H	0.433677	0.424128	0.389995
252	C	0.47713	0.412403	0.640991
253	H	0.496403	0.425078	0.61841
254	O	0.468915	0.361255	0.608906
255	H	0.452654	0.354621	0.583925
256	C	0.323681	0.078781	0.672208
257	C	0.306998	0.077111	0.631348
258	C	0.276024	0.07698	0.631311
259	C	0.26095	0.078594	0.338805
260	C	0.276079	0.07728	0.379961
261	H	0.267318	0.080706	0.601286
262	H	0.319497	0.080808	0.601383
263	C	0.307217	0.077626	0.379726
264	H	0.319961	0.081547	0.409536
265	O	0.265096	0.082505	0.420216
266	H	0.243556	0.061758	0.426688
267	C	0.429538	0.24723	0.672326
268	C	0.431154	0.232265	0.631426
269	C	0.431236	0.201413	0.631385
270	C	0.429703	0.184737	0.338866
271	C	0.430945	0.201126	0.380052
272	H	0.427675	0.189021	0.60136
273	H	0.427555	0.241106	0.60143
274	C	0.430588	0.2319	0.379847
275	H	0.426725	0.240724	0.409694
276	O	0.42583	0.1849	0.420263
277	H	0.446712	0.18435	0.426749
278	C	0.260976	0.184612	0.672299
279	C	0.276047	0.201231	0.631436
280	C	0.306919	0.232162	0.631486
281	C	0.323487	0.247268	0.339064
282	C	0.306944	0.232163	0.380157
283	H	0.319486	0.240839	0.601541
284	H	0.267454	0.188697	0.601461
285	C	0.276144	0.201063	0.379857
286	H	0.267249	0.188331	0.409654
287	O	0.323105	0.243255	0.420411
288	H	0.323679	0.264692	0.426849
289	C	0.486564	0.021637	0.671525
290	C	0.469155	0.485748	0.671512
291	C	0.486486	0.46718	0.671481
292	H	0.443204	0.472809	0.671377
293	C	0.241056	0.094657	0.671619
294	C	0.258501	0.130368	0.671966
295	C	0.241102	0.14869	0.671976
296	H	0.284535	0.143361	0.672336
297	C	0.413663	0.148789	0.671643
298	C	0.377934	0.130521	0.671959
299	C	0.359607	0.094816	0.671942
300	C	0.377696	0.077127	0.671599
301	C	0.413728	0.094613	0.670795
302	C	0.43131	0.130643	0.67103
303	H	0.364347	0.051211	0.672521
304	H	0.457245	0.143932	0.670142
305	H	0.364932	0.143551	0.672326
306	C	0.359452	0.267157	0.67173
307	C	0.377739	0.249719	0.672121
308	C	0.413463	0.267104	0.672064
309	C	0.431145	0.302871	0.671663
310	C	0.41364	0.321398	0.670838
311	C	0.377593	0.302934	0.671077
312	H	0.457071	0.315445	0.672565
313	H	0.364286	0.315559	0.670182
314	H	0.364709	0.223699	0.672545
315	C	0.46843	0.039872	0.671098
316	C	0.477137	0.067412	0.700578
317	C	0.459179	0.08516	0.700242
318	C	0.431872	0.076365	0.003521
319	C	0.423446	0.049107	0.97328
320	H	0.46592	0.104337	0.723007
321	H	0.496269	0.07436	0.723485
322	C	0.441224	0.031105	0.974277
323	H	0.434651	0.011864	0.951655
324	O	0.398394	0.039467	0.942063
325	H	0.408092	0.055761	0.91714
326	C	0.468263	0.430818	0.67104
327	C	0.440667	0.411967	0.700447
328	C	0.422971	0.376274	0.700151
329	C	0.431867	0.357785	0.003545
330	C	0.45917	0.376634	0.973358
331	H	0.403783	0.363834	0.722913
332	H	0.433677	0.424128	0.723327
333	C	0.47713	0.412403	0.974327
334	H	0.496403	0.425078	0.951743
335	O	0.468915	0.361255	0.942238
336	H	0.452654	0.354621	0.917258
337	C	0.323681	0.078781	0.005544
338	C	0.306998	0.077111	0.964681
339	C	0.276024	0.07698	0.964644
340	C	0.26095	0.078594	0.672138
341	C	0.276079	0.07728	0.713294
342	H	0.267318	0.080706	0.934618
343	H	0.319497	0.080808	0.934716
344	C	0.307217	0.077626	0.713058
345	H	0.319961	0.081547	0.742869
346	O	0.265096	0.082505	0.753548
347	H	0.243556	0.061758	0.76002
348	C	0.429538	0.24723	0.005659
349	C	0.431154	0.232265	0.964758
350	C	0.431236	0.201413	0.964718
351	C	0.429703	0.184737	0.672198
352	C	0.430945	0.201126	0.713385
353	H	0.427675	0.189021	0.934692
354	H	0.427555	0.241106	0.934763
355	C	0.430588	0.2319	0.713179
356	H	0.426725	0.240724	0.743027
357	O	0.42583	0.1849	0.753595
358	H	0.446712	0.18435	0.760084
359	C	0.260976	0.184612	0.005633
360	C	0.276047	0.201231	0.964768
361	C	0.306919	0.232162	0.964819
362	C	0.323487	0.247268	0.672397
363	C	0.306944	0.232163	0.713489
364	H	0.319486	0.240839	0.934874
365	H	0.267454	0.188697	0.934793
366	C	0.276144	0.201063	0.71319
367	H	0.267249	0.188331	0.742986
368	O	0.323105	0.243255	0.753743
369	H	0.323679	0.264692	0.760182
370	C	0.486564	0.521636	0.004858
371	C	0.469155	0.985746	0.004848
372	C	0.486487	0.967179	0.004814
373	H	0.443203	0.972808	0.00471
374	C	0.241056	0.594657	0.004952
375	C	0.258501	0.630368	0.005301
376	C	0.241102	0.64869	0.005309
377	H	0.284535	0.64336	0.005669
378	C	0.413662	0.648788	0.004976
379	C	0.377934	0.63052	0.005292
380	C	0.359606	0.594816	0.005276
381	C	0.377696	0.577128	0.004933
382	C	0.413727	0.594614	0.004127
383	C	0.43131	0.630644	0.004363
384	H	0.364348	0.551212	0.005854
385	H	0.457245	0.643932	0.003474
386	H	0.364931	0.64355	0.005661
387	C	0.359453	0.767158	0.005066
388	C	0.377739	0.749718	0.005456
389	C	0.413464	0.767103	0.005399
390	C	0.431144	0.802869	0.004998
391	C	0.413642	0.821399	0.004171
392	C	0.377595	0.802935	0.00441
393	H	0.457074	0.815446	0.005898
394	H	0.364286	0.815558	0.003518
395	H	0.36471	0.723699	0.005879
396	C	0.468429	0.539872	0.00443
397	C	0.477137	0.567411	0.033912
398	C	0.459179	0.58516	0.033575
399	C	0.431873	0.576366	0.336856
400	C	0.423446	0.549107	0.306614
401	H	0.46592	0.604336	0.056343
402	H	0.496269	0.574359	0.05682
403	C	0.441225	0.531105	0.307609
404	H	0.434652	0.511864	0.28499
405	O	0.398395	0.539466	0.275397
406	H	0.408093	0.555762	0.250472
407	C	0.468265	0.93082	0.004373
408	C	0.440668	0.911968	0.03378
409	C	0.422973	0.876275	0.033487
410	C	0.431867	0.857784	0.33688
411	C	0.45917	0.876632	0.306692
412	H	0.403784	0.863835	0.056248
413	H	0.433677	0.92413	0.056662
414	C	0.477129	0.912402	0.307659
415	H	0.496404	0.92508	0.285076
416	O	0.468914	0.861254	0.275571
417	H	0.452653	0.85462	0.25059
418	C	0.323681	0.57878	0.338876
419	C	0.306998	0.57711	0.298015
420	C	0.276025	0.576981	0.297977
421	C	0.260952	0.578595	0.005473
422	C	0.276079	0.57728	0.046629
423	H	0.26732	0.580707	0.267951
424	H	0.319498	0.580809	0.268049
425	C	0.307217	0.577627	0.046392
426	H	0.319961	0.581546	0.076201
427	O	0.265097	0.582506	0.086883
428	H	0.243556	0.561757	0.093354
429	C	0.429537	0.747231	0.338994
430	C	0.431155	0.732265	0.298092
431	C	0.431236	0.701413	0.298052
432	C	0.429704	0.684738	0.005533
433	C	0.430947	0.701126	0.04672
434	H	0.427675	0.689021	0.268027
435	H	0.427555	0.741106	0.268097
436	C	0.430589	0.731901	0.046513
437	H	0.426726	0.740723	0.07636
438	O	0.425831	0.6849	0.08693
439	H	0.446711	0.68435	0.093417
440	C	0.260976	0.684611	0.338967
441	C	0.276047	0.70123	0.298103
442	C	0.306919	0.732162	0.298152
443	C	0.323488	0.747269	0.005732
444	C	0.306945	0.732164	0.046824
445	H	0.319487	0.74084	0.268208
446	H	0.267454	0.688697	0.268127
447	C	0.276145	0.701063	0.046523
448	H	0.267248	0.688329	0.076319
449	O	0.323105	0.743254	0.087076
450	H	0.32368	0.764694	0.093515
451	C	0.486564	0.521636	0.338189
452	C	0.469155	0.985746	0.338179
453	C	0.486487	0.967179	0.338149
454	H	0.443203	0.972808	0.338045
455	C	0.241056	0.594657	0.338283
456	C	0.258501	0.630368	0.338634
457	C	0.241102	0.64869	0.33864
458	H	0.284535	0.64336	0.339
459	C	0.413662	0.648788	0.33831
460	C	0.377934	0.63052	0.338623
461	C	0.359606	0.594816	0.33861
462	C	0.377696	0.577128	0.338267
463	C	0.413727	0.594614	0.337462
464	C	0.43131	0.630644	0.337698
465	H	0.364348	0.551212	0.339189
466	H	0.457245	0.643932	0.336809
467	H	0.364931	0.64355	0.338994
468	C	0.359453	0.767158	0.338398
469	C	0.377739	0.749718	0.338788
470	C	0.413464	0.767103	0.338731
471	C	0.431144	0.802869	0.338331
472	C	0.413642	0.821399	0.337506
473	C	0.377595	0.802935	0.337745
474	H	0.457074	0.815446	0.339233
475	H	0.364286	0.815558	0.33685
476	H	0.36471	0.723699	0.339212
477	C	0.468429	0.539872	0.337765
478	C	0.477137	0.567411	0.367246
479	C	0.459179	0.58516	0.366909
480	C	0.431873	0.576366	0.670189
481	C	0.423446	0.549107	0.639948
482	H	0.46592	0.604336	0.389675
483	H	0.496269	0.574359	0.390153
484	C	0.441225	0.531105	0.640941
485	H	0.434652	0.511864	0.618323
486	O	0.398395	0.539466	0.608731
487	H	0.408093	0.555762	0.583804
488	C	0.468265	0.93082	0.337708
489	C	0.440668	0.911968	0.367114
490	C	0.422973	0.876275	0.366818
491	C	0.431867	0.857784	0.670212
492	C	0.45917	0.876632	0.640025
493	H	0.403784	0.863835	0.389581
494	H	0.433677	0.92413	0.389995
495	C	0.477129	0.912402	0.640991
496	H	0.496404	0.92508	0.61841
497	O	0.468914	0.861254	0.608906
498	H	0.452653	0.85462	0.583922
499	C	0.323681	0.57878	0.672208
500	C	0.306998	0.57711	0.631348
501	C	0.276025	0.576981	0.631311
502	C	0.260952	0.578595	0.338805
503	C	0.276079	0.57728	0.379961
504	H	0.26732	0.580707	0.601282
505	H	0.319498	0.580809	0.601383
506	C	0.307217	0.577627	0.379726
507	H	0.319961	0.581546	0.409533
508	O	0.265097	0.582506	0.420216
509	H	0.243556	0.561757	0.426688
510	C	0.429537	0.747231	0.672326
511	C	0.431155	0.732265	0.631426
512	C	0.431236	0.701413	0.631385
513	C	0.429704	0.684738	0.338866
514	C	0.430947	0.701126	0.380052
515	H	0.427675	0.689021	0.60136
516	H	0.427555	0.741106	0.60143
517	C	0.430589	0.731901	0.379847
518	H	0.426726	0.740723	0.409694
519	O	0.425831	0.6849	0.420263
520	H	0.446711	0.68435	0.426749
521	C	0.260976	0.684611	0.672299
522	C	0.276047	0.70123	0.631436
523	C	0.306919	0.732162	0.631486
524	C	0.323488	0.747269	0.339064
525	C	0.306945	0.732164	0.380157
526	H	0.319487	0.74084	0.601541
527	H	0.267454	0.688697	0.601461
528	C	0.276145	0.701063	0.379857
529	H	0.267248	0.688329	0.409654
530	O	0.323105	0.743254	0.420411
531	H	0.32368	0.764694	0.426849
532	C	0.486564	0.521636	0.671525
533	C	0.469155	0.985746	0.671512
534	C	0.486487	0.967179	0.671481
535	H	0.443203	0.972808	0.671377
536	C	0.241056	0.594657	0.671619
537	C	0.258501	0.630368	0.671966
538	C	0.241102	0.64869	0.671976
539	H	0.284535	0.64336	0.672336
540	C	0.413662	0.648788	0.671643
541	C	0.377934	0.63052	0.671959
542	C	0.359606	0.594816	0.671942
543	C	0.377696	0.577128	0.671599
544	C	0.413727	0.594614	0.670795
545	C	0.43131	0.630644	0.67103
546	H	0.364348	0.551212	0.672521
547	H	0.457245	0.643932	0.670142
548	H	0.364931	0.64355	0.672326
549	C	0.359453	0.767158	0.67173
550	C	0.377739	0.749718	0.672121
551	C	0.413464	0.767103	0.672064
552	C	0.431144	0.802869	0.671663
553	C	0.413642	0.821399	0.670838
554	C	0.377595	0.802935	0.671077
555	H	0.457074	0.815446	0.672565
556	H	0.364286	0.815558	0.670182
557	H	0.36471	0.723699	0.672545
558	C	0.468429	0.539872	0.671098
559	C	0.477137	0.567411	0.700578
560	C	0.459179	0.58516	0.700242
561	C	0.431873	0.576366	0.003521
562	C	0.423446	0.549107	0.97328
563	H	0.46592	0.604336	0.723011
564	H	0.496269	0.574359	0.723485
565	C	0.441225	0.531105	0.974277
566	H	0.434652	0.511864	0.951655
567	O	0.398395	0.539466	0.942063
568	H	0.408093	0.555762	0.91714
569	C	0.468265	0.93082	0.67104
570	C	0.440668	0.911968	0.700447
571	C	0.422973	0.876275	0.700154
572	C	0.431867	0.857784	0.003545
573	C	0.45917	0.876632	0.973358
574	H	0.403784	0.863835	0.722913
575	H	0.433677	0.92413	0.723327
576	C	0.477129	0.912402	0.974324
577	H	0.496404	0.92508	0.951743
578	O	0.468914	0.861254	0.942238
579	H	0.452653	0.85462	0.917258
580	C	0.323681	0.57878	0.005543
581	C	0.306998	0.57711	0.964681
582	C	0.276025	0.576981	0.964644
583	C	0.260952	0.578595	0.672138
584	C	0.276079	0.57728	0.713294
585	H	0.26732	0.580707	0.934618
586	H	0.319498	0.580809	0.934716
587	C	0.307217	0.577627	0.713058
588	H	0.319961	0.581546	0.742869
589	O	0.265097	0.582506	0.753548
590	H	0.243556	0.561757	0.76002
591	C	0.429537	0.747231	0.005659
592	C	0.431155	0.732265	0.964758
593	C	0.431236	0.701413	0.964718
594	C	0.429704	0.684738	0.672198
595	C	0.430947	0.701126	0.713385
596	H	0.427675	0.689021	0.934692
597	H	0.427555	0.741106	0.934763
598	C	0.430589	0.731901	0.713179
599	H	0.426726	0.740723	0.743027
600	O	0.425831	0.6849	0.753595
601	H	0.446711	0.68435	0.760084
602	C	0.260976	0.684611	0.005633
603	C	0.276047	0.70123	0.964768
604	C	0.306919	0.732162	0.964819
605	C	0.323488	0.747269	0.6724
606	C	0.306945	0.732164	0.713489
607	H	0.319487	0.74084	0.934874
608	H	0.267454	0.688697	0.934793
609	C	0.276145	0.701063	0.71319
610	H	0.267248	0.688329	0.742986
611	O	0.323105	0.743254	0.753743
612	H	0.32368	0.764694	0.760182
613	C	0.540961	0.021554	0.004824
614	C	0.522461	0.038956	0.004875
615	C	0.986564	0.021637	0.004858
616	C	0.969155	0.485748	0.004848
617	C	0.986489	0.46718	0.004814
618	C	0.522394	0.485669	0.004834
619	H	0.943205	0.472809	0.00471
620	H	0.535351	0.472677	0.004693
621	H	0.535457	0.064896	0.004763
622	C	0.741056	0.094657	0.004952
623	C	0.758501	0.130368	0.005301
624	C	0.741102	0.14869	0.005309
625	C	0.705317	0.130601	0.005005
626	C	0.686791	0.094585	0.004171
627	C	0.705265	0.077017	0.004336
628	H	0.69273	0.143938	0.005968
629	H	0.692641	0.051095	0.003414
630	H	0.784536	0.143361	0.005669
631	C	0.913663	0.148789	0.004976
632	C	0.877936	0.130521	0.005292
633	C	0.859607	0.094816	0.005276
634	C	0.877696	0.077127	0.004933
635	C	0.913728	0.094613	0.004127
636	C	0.93131	0.130643	0.004363
637	H	0.864349	0.051211	0.005854
638	H	0.957245	0.143932	0.003474
639	H	0.864932	0.143551	0.005661
640	C	0.859452	0.267157	0.005066
641	C	0.877739	0.249719	0.005455
642	C	0.913466	0.267104	0.005399
643	C	0.931145	0.302871	0.004998
644	C	0.913642	0.321398	0.004171
645	C	0.877595	0.302934	0.00441
646	H	0.957074	0.315445	0.005899
647	H	0.864286	0.315559	0.003515
648	H	0.864711	0.223699	0.005879
649	C	0.577334	0.039707	0.004376
650	C	0.596209	0.030993	0.033788
651	C	0.631919	0.049027	0.033505
652	C	0.650393	0.076411	0.3369
653	C	0.631519	0.084835	0.306712
654	H	0.64438	0.042296	0.056256
655	H	0.584057	0.011845	0.056668
656	C	0.595734	0.066973	0.307648
657	H	0.583038	0.07357	0.285096
658	O	0.646888	0.109959	0.275602
659	H	0.653532	0.100355	0.250608
660	C	0.96843	0.039872	0.00443
661	C	0.977137	0.067412	0.033912
662	C	0.959179	0.08516	0.033575
663	C	0.931872	0.076365	0.336856
664	C	0.923446	0.049107	0.306614
665	H	0.965922	0.104337	0.056343
666	H	0.996271	0.07436	0.05682
667	C	0.941224	0.031105	0.307609
668	H	0.934654	0.011864	0.28499
669	O	0.898396	0.039467	0.275398
670	H	0.908094	0.055761	0.250472
671	C	0.968266	0.430818	0.004373
672	C	0.940667	0.411967	0.033779
673	C	0.922973	0.376274	0.033486
674	C	0.931869	0.357785	0.33688
675	C	0.95917	0.376634	0.306693
676	H	0.903783	0.363834	0.056247
677	H	0.933677	0.424128	0.056661
678	C	0.97713	0.412403	0.307659
679	H	0.996403	0.425078	0.285077
680	O	0.968915	0.361255	0.275572
681	H	0.952656	0.354621	0.250591
682	C	0.823681	0.078781	0.338876
683	C	0.806998	0.077111	0.298015
684	C	0.776026	0.07698	0.297977
685	C	0.760952	0.078594	0.005473
686	C	0.776079	0.07728	0.046629
687	H	0.76732	0.080706	0.267951
688	H	0.819497	0.080808	0.26805
689	C	0.807217	0.077626	0.046392
690	H	0.819961	0.081547	0.076202
691	O	0.765096	0.082505	0.086883
692	H	0.743556	0.061758	0.093354
693	C	0.929538	0.24723	0.338994
694	C	0.931154	0.232265	0.298092
695	C	0.931238	0.201413	0.298053
696	C	0.929703	0.184737	0.005533
697	C	0.930947	0.201126	0.04672
698	H	0.927675	0.189021	0.268027
699	H	0.927555	0.241106	0.268097
700	C	0.930588	0.2319	0.046513
701	H	0.926728	0.240724	0.07636
702	O	0.925832	0.1849	0.08693
703	H	0.946712	0.18435	0.093417
704	C	0.760978	0.184612	0.338967
705	C	0.776047	0.201231	0.298103
706	C	0.80692	0.232162	0.298152
707	C	0.823487	0.247268	0.005732
708	C	0.806945	0.232163	0.046824
709	H	0.819486	0.240839	0.268208
710	H	0.767454	0.188697	0.268127
711	C	0.776144	0.201063	0.046523
712	H	0.767249	0.188331	0.076319
713	O	0.823107	0.243255	0.087076
714	H	0.82368	0.264692	0.093515
715	C	0.540961	0.021554	0.338159
716	C	0.522461	0.038956	0.338209
717	C	0.986564	0.021637	0.338189
718	C	0.969155	0.485748	0.338179
719	C	0.986489	0.46718	0.338149
720	C	0.522394	0.485669	0.338169
721	H	0.943205	0.472809	0.338045
722	H	0.535351	0.472677	0.338028
723	H	0.535457	0.064896	0.338098
724	C	0.741056	0.094657	0.338283
725	C	0.758501	0.130368	0.338634
726	C	0.741102	0.14869	0.33864
727	C	0.705317	0.130601	0.338337
728	C	0.686791	0.094585	0.337503
729	C	0.705265	0.077017	0.337671
730	H	0.69273	0.143938	0.3393
731	H	0.692641	0.051095	0.336745
732	H	0.784536	0.143361	0.339
733	C	0.913663	0.148789	0.33831
734	C	0.877936	0.130521	0.338623
735	C	0.859607	0.094816	0.33861
736	C	0.877696	0.077127	0.338267
737	C	0.913728	0.094613	0.337462
738	C	0.93131	0.130643	0.337698
739	H	0.864349	0.051211	0.339189
740	H	0.957245	0.143932	0.336809
741	H	0.864932	0.143551	0.338994
742	C	0.859452	0.267157	0.338398
743	C	0.877739	0.249719	0.338788
744	C	0.913466	0.267104	0.338731
745	C	0.931145	0.302871	0.338331
746	C	0.913642	0.321398	0.337506
747	C	0.877595	0.302934	0.337745
748	H	0.957074	0.315445	0.339233
749	H	0.864286	0.315559	0.33685
750	H	0.864711	0.223699	0.339212
751	C	0.577334	0.039707	0.337711
752	C	0.596209	0.030993	0.367121
753	C	0.631919	0.049027	0.366838
754	C	0.650393	0.076411	0.670233
755	C	0.631519	0.084835	0.640045
756	H	0.64438	0.042296	0.389587
757	H	0.584057	0.011845	0.390001
758	C	0.595734	0.066973	0.640981
759	H	0.583038	0.07357	0.618431
760	O	0.646888	0.109959	0.608936
761	H	0.653532	0.100355	0.583942
762	C	0.96843	0.039872	0.337765
763	C	0.977137	0.067412	0.367246
764	C	0.959179	0.08516	0.366909
765	C	0.931872	0.076365	0.670189
766	C	0.923446	0.049107	0.639948
767	H	0.965922	0.104337	0.389675
768	H	0.996271	0.07436	0.390153
769	C	0.941224	0.031105	0.640941
770	H	0.934654	0.011864	0.618323
771	O	0.898396	0.039467	0.608731
772	H	0.908094	0.055761	0.583807
773	C	0.968266	0.430818	0.337708
774	C	0.940667	0.411967	0.367111
775	C	0.922973	0.376274	0.366818
776	C	0.931869	0.357785	0.670212
777	C	0.95917	0.376634	0.640025
778	H	0.903783	0.363834	0.389581
779	H	0.933677	0.424128	0.389995
780	C	0.97713	0.412403	0.640991
781	H	0.996403	0.425078	0.61841
782	O	0.968915	0.361255	0.608906
783	H	0.952656	0.354621	0.583925
784	C	0.823681	0.078781	0.672208
785	C	0.806998	0.077111	0.631348
786	C	0.776026	0.07698	0.631311
787	C	0.760952	0.078594	0.338805
788	C	0.776079	0.07728	0.379961
789	H	0.76732	0.080706	0.601286
790	H	0.819497	0.080808	0.601383
791	C	0.807217	0.077626	0.379726
792	H	0.819961	0.081547	0.409536
793	O	0.765096	0.082505	0.420216
794	H	0.743556	0.061758	0.426688
795	C	0.929538	0.24723	0.672326
796	C	0.931154	0.232265	0.631426
797	C	0.931238	0.201413	0.631385
798	C	0.929703	0.184737	0.338866
799	C	0.930947	0.201126	0.380052
800	H	0.927675	0.189021	0.60136
801	H	0.927555	0.241106	0.60143
802	C	0.930588	0.2319	0.379847
803	H	0.926728	0.240724	0.409694
804	O	0.925832	0.1849	0.420263
805	H	0.946712	0.18435	0.426749
806	C	0.760978	0.184612	0.672299
807	C	0.776047	0.201231	0.631436
808	C	0.80692	0.232162	0.631486
809	C	0.823487	0.247268	0.339064
810	C	0.806945	0.232163	0.380157
811	H	0.819486	0.240839	0.601541
812	H	0.767454	0.188697	0.601461
813	C	0.776144	0.201063	0.379857
814	H	0.767249	0.188331	0.409654
815	O	0.823107	0.243255	0.420411
816	H	0.82368	0.264692	0.426849
817	C	0.540961	0.021554	0.671491
818	C	0.522461	0.038956	0.671542
819	C	0.986564	0.021637	0.671525
820	C	0.969155	0.485748	0.671512
821	C	0.986489	0.46718	0.671481
822	C	0.522394	0.485669	0.671502
823	H	0.943205	0.472809	0.671377
824	H	0.535351	0.472677	0.67136
825	H	0.535457	0.064896	0.671431
826	C	0.741056	0.094657	0.671619
827	C	0.758501	0.130368	0.671966
828	C	0.741102	0.14869	0.671976
829	C	0.705317	0.130601	0.671673
830	C	0.686791	0.094585	0.670835
831	C	0.705265	0.077017	0.671003
832	H	0.69273	0.143938	0.672632
833	H	0.692641	0.051095	0.670081
834	H	0.784536	0.143361	0.672336
835	C	0.913663	0.148789	0.671643
836	C	0.877936	0.130521	0.671959
837	C	0.859607	0.094816	0.671942
838	C	0.877696	0.077127	0.671599
839	C	0.913728	0.094613	0.670795
840	C	0.93131	0.130643	0.67103
841	H	0.864349	0.051211	0.672521
842	H	0.957245	0.143932	0.670142
843	H	0.864932	0.143551	0.672326
844	C	0.859452	0.267157	0.67173
845	C	0.877739	0.249719	0.672121
846	C	0.913466	0.267104	0.672064
847	C	0.931145	0.302871	0.671663
848	C	0.913642	0.321398	0.670838
849	C	0.877595	0.302934	0.671077
850	H	0.957074	0.315445	0.672565
851	H	0.864286	0.315559	0.670182
852	H	0.864711	0.223699	0.672545
853	C	0.577334	0.039707	0.671044
854	C	0.596209	0.030993	0.700454
855	C	0.631919	0.049027	0.700171
856	C	0.650393	0.076411	0.003565
857	C	0.631519	0.084835	0.973378
858	H	0.64438	0.042296	0.72292
859	H	0.584057	0.011845	0.723334
860	C	0.595734	0.066973	0.974314
861	H	0.583038	0.07357	0.951763
862	O	0.646888	0.109959	0.942268
863	H	0.653532	0.100355	0.917274
864	C	0.96843	0.039872	0.671098
865	C	0.977137	0.067412	0.700578
866	C	0.959179	0.08516	0.700242
867	C	0.931872	0.076365	0.003521
868	C	0.923446	0.049107	0.97328
869	H	0.965922	0.104337	0.723007
870	H	0.996271	0.07436	0.723485
871	C	0.941224	0.031105	0.974277
872	H	0.934654	0.011864	0.951655
873	O	0.898396	0.039467	0.942063
874	H	0.908094	0.055761	0.91714
875	C	0.968266	0.430818	0.67104
876	C	0.940667	0.411967	0.700447
877	C	0.922973	0.376274	0.700151
878	C	0.931869	0.357785	0.003545
879	C	0.95917	0.376634	0.973358
880	H	0.903783	0.363834	0.722913
881	H	0.933677	0.424128	0.723327
882	C	0.97713	0.412403	0.974327
883	H	0.996403	0.425078	0.951743
884	O	0.968915	0.361255	0.942238
885	H	0.952656	0.354621	0.917258
886	C	0.823681	0.078781	0.005544
887	C	0.806998	0.077111	0.964681
888	C	0.776026	0.07698	0.964644
889	C	0.760952	0.078594	0.672138
890	C	0.776079	0.07728	0.713294
891	H	0.76732	0.080706	0.934618
892	H	0.819497	0.080808	0.934716
893	C	0.807217	0.077626	0.713058
894	H	0.819961	0.081547	0.742869
895	O	0.765096	0.082505	0.753548
896	H	0.743556	0.061758	0.76002
897	C	0.929538	0.24723	0.005659
898	C	0.931154	0.232265	0.964758
899	C	0.931238	0.201413	0.964718
900	C	0.929703	0.184737	0.672198
901	C	0.930947	0.201126	0.713385
902	H	0.927675	0.189021	0.934692
903	H	0.927555	0.241106	0.934763
904	C	0.930588	0.2319	0.713179
905	H	0.926728	0.240724	0.743027
906	O	0.925832	0.1849	0.753595
907	H	0.946712	0.18435	0.760084
908	C	0.760978	0.184612	0.005633
909	C	0.776047	0.201231	0.964768
910	C	0.80692	0.232162	0.964819
911	C	0.823487	0.247268	0.672397
912	C	0.806945	0.232163	0.713489
913	H	0.819486	0.240839	0.934874
914	H	0.767454	0.188697	0.934793
915	C	0.776144	0.201063	0.71319
916	H	0.767249	0.188331	0.742986
917	O	0.823107	0.243255	0.753743
918	H	0.82368	0.264692	0.760182
919	C	0.540962	0.521553	0.004824
920	C	0.52246	0.538955	0.004875
921	C	0.986564	0.521636	0.004858
922	C	0.969156	0.985746	0.004848
923	C	0.986487	0.967179	0.004814
924	C	0.522396	0.98567	0.004834
925	H	0.943205	0.972808	0.00471
926	H	0.535352	0.972676	0.004693
927	H	0.535458	0.564896	0.004763
928	C	0.741057	0.594657	0.004952
929	C	0.758502	0.630368	0.005301
930	C	0.741103	0.64869	0.005309
931	C	0.705319	0.630601	0.005006
932	C	0.686791	0.594583	0.004171
933	C	0.705266	0.577017	0.004336
934	H	0.692729	0.643938	0.005968
935	H	0.692642	0.551096	0.003414
936	H	0.784537	0.64336	0.005669
937	C	0.913664	0.648788	0.004976
938	C	0.877934	0.63052	0.005292
939	C	0.859608	0.594816	0.005276
940	C	0.877697	0.577128	0.004933
941	C	0.913729	0.594614	0.004127
942	C	0.931312	0.630644	0.004363
943	H	0.864349	0.551212	0.005854
944	H	0.957246	0.643932	0.003474
945	H	0.864932	0.64355	0.005661
946	C	0.859454	0.767158	0.005066
947	C	0.877739	0.749718	0.005456
948	C	0.913464	0.767103	0.005399
949	C	0.931146	0.802869	0.004998
950	C	0.913642	0.821399	0.004171
951	C	0.877597	0.802935	0.00441
952	H	0.957075	0.815446	0.005898
953	H	0.864286	0.815558	0.003518
954	H	0.86471	0.723699	0.005879
955	C	0.577335	0.539707	0.004376
956	C	0.596211	0.530993	0.033789
957	C	0.631919	0.549026	0.033505
958	C	0.650394	0.576411	0.3369
959	C	0.631519	0.584834	0.306712
960	H	0.644382	0.542296	0.056255
961	H	0.584058	0.511843	0.056668
962	C	0.595735	0.566973	0.307648
963	H	0.583036	0.573569	0.285096
964	O	0.646889	0.609959	0.275602
965	H	0.653533	0.600354	0.250608
966	C	0.96843	0.539872	0.00443
967	C	0.977138	0.567411	0.033912
968	C	0.959181	0.58516	0.033575
969	C	0.931874	0.576366	0.336856
970	C	0.923447	0.549107	0.306614
971	H	0.96592	0.604336	0.056343
972	H	0.996269	0.574359	0.05682
973	C	0.941225	0.531105	0.307609
974	H	0.934652	0.511864	0.28499
975	O	0.898397	0.539466	0.275397
976	H	0.908095	0.555762	0.250472
977	C	0.968265	0.93082	0.004373
978	C	0.940668	0.911968	0.03378
979	C	0.922973	0.876275	0.033487
980	C	0.931867	0.857784	0.33688
981	C	0.959171	0.876632	0.306692
982	H	0.903784	0.863835	0.056248
983	H	0.933679	0.92413	0.056662
984	C	0.97713	0.912402	0.307659
985	H	0.996405	0.92508	0.285076
986	O	0.968915	0.861254	0.275571
987	H	0.952654	0.85462	0.25059
988	C	0.823682	0.57878	0.338876
989	C	0.806999	0.57711	0.298015
990	C	0.776027	0.576981	0.297977
991	C	0.760954	0.578595	0.005473
992	C	0.77608	0.57728	0.046629
993	H	0.767322	0.580707	0.267951
994	H	0.819499	0.580809	0.268049
995	C	0.807218	0.577627	0.046392
996	H	0.819962	0.581546	0.076201
997	O	0.765098	0.582506	0.086883
998	H	0.743556	0.561757	0.093354
999	C	0.929539	0.747231	0.338994
1000	C	0.931156	0.732265	0.298092
1001	C	0.931237	0.701413	0.298052
1002	C	0.929705	0.684738	0.005533
1003	C	0.930947	0.701126	0.04672
1004	H	0.927676	0.689021	0.268027
1005	H	0.927556	0.741106	0.268097
1006	C	0.930589	0.731901	0.046513
1007	H	0.926726	0.740723	0.07636
1008	O	0.925831	0.6849	0.08693
1009	H	0.946713	0.68435	0.093417
1010	C	0.760976	0.684611	0.338967
1011	C	0.776047	0.70123	0.298103
1012	C	0.806919	0.732162	0.298152
1013	C	0.823489	0.747269	0.005732
1014	C	0.806947	0.732164	0.046824
1015	H	0.819488	0.74084	0.268208
1016	H	0.767455	0.688697	0.268127
1017	C	0.776146	0.701063	0.046523
1018	H	0.767249	0.688329	0.076319
1019	O	0.823105	0.743254	0.087076
1020	H	0.823681	0.764694	0.093515
1021	C	0.540962	0.521553	0.338159
1022	C	0.52246	0.538955	0.338209
1023	C	0.986564	0.521636	0.338189
1024	C	0.969156	0.985746	0.338179
1025	C	0.986487	0.967179	0.338149
1026	C	0.522396	0.98567	0.338169
1027	H	0.943205	0.972808	0.338045
1028	H	0.535352	0.972676	0.338028
1029	H	0.535458	0.564896	0.338098
1030	C	0.741057	0.594657	0.338283
1031	C	0.758502	0.630368	0.338634
1032	C	0.741103	0.64869	0.33864
1033	C	0.705319	0.630601	0.338337
1034	C	0.686791	0.594583	0.337503
1035	C	0.705266	0.577017	0.337671
1036	H	0.692729	0.643938	0.3393
1037	H	0.692642	0.551096	0.336745
1038	H	0.784537	0.64336	0.339
1039	C	0.913664	0.648788	0.33831
1040	C	0.877934	0.63052	0.338623
1041	C	0.859608	0.594816	0.33861
1042	C	0.877697	0.577128	0.338267
1043	C	0.913729	0.594614	0.337462
1044	C	0.931312	0.630644	0.337698
1045	H	0.864349	0.551212	0.339189
1046	H	0.957246	0.643932	0.336809
1047	H	0.864932	0.64355	0.338994
1048	C	0.859454	0.767158	0.338398
1049	C	0.877739	0.749718	0.338788
1050	C	0.913464	0.767103	0.338731
1051	C	0.931146	0.802869	0.338331
1052	C	0.913642	0.821399	0.337506
1053	C	0.877597	0.802935	0.337745
1054	H	0.957075	0.815446	0.339233
1055	H	0.864286	0.815558	0.33685
1056	H	0.86471	0.723699	0.339212
1057	C	0.577335	0.539707	0.337711
1058	C	0.596211	0.530993	0.367121
1059	C	0.631919	0.549026	0.366838
1060	C	0.650394	0.576411	0.670233
1061	C	0.631519	0.584834	0.640045
1062	H	0.644382	0.542296	0.389587
1063	H	0.584058	0.511843	0.390001
1064	C	0.595735	0.566973	0.640981
1065	H	0.583036	0.573569	0.618431
1066	O	0.646889	0.609959	0.608936
1067	H	0.653533	0.600354	0.583942
1068	C	0.96843	0.539872	0.337765
1069	C	0.977138	0.567411	0.367246
1070	C	0.959181	0.58516	0.366909
1071	C	0.931874	0.576366	0.670189
1072	C	0.923447	0.549107	0.639948
1073	H	0.96592	0.604336	0.389675
1074	H	0.996269	0.574359	0.390153
1075	C	0.941225	0.531105	0.640941
1076	H	0.934652	0.511864	0.618323
1077	O	0.898397	0.539466	0.608731
1078	H	0.908095	0.555762	0.583804
1079	C	0.968265	0.93082	0.337708
1080	C	0.940668	0.911968	0.367114
1081	C	0.922973	0.876275	0.366818
1082	C	0.931867	0.857784	0.670212
1083	C	0.959171	0.876632	0.640025
1084	H	0.903784	0.863835	0.389581
1085	H	0.933679	0.92413	0.389995
1086	C	0.97713	0.912402	0.640991
1087	H	0.996405	0.92508	0.61841
1088	O	0.968915	0.861254	0.608906
1089	H	0.952654	0.85462	0.583922
1090	C	0.823682	0.57878	0.672208
1091	C	0.806999	0.57711	0.631348
1092	C	0.776027	0.576981	0.631311
1093	C	0.760954	0.578595	0.338805
1094	C	0.77608	0.57728	0.379961
1095	H	0.767322	0.580707	0.601282
1096	H	0.819499	0.580809	0.601383
1097	C	0.807218	0.577627	0.379726
1098	H	0.819962	0.581546	0.409533
1099	O	0.765098	0.582506	0.420216
1100	H	0.743556	0.561757	0.426688
1101	C	0.929539	0.747231	0.672326
1102	C	0.931156	0.732265	0.631426
1103	C	0.931237	0.701413	0.631385
1104	C	0.929705	0.684738	0.338866
1105	C	0.930947	0.701126	0.380052
1106	H	0.927676	0.689021	0.60136
1107	H	0.927556	0.741106	0.60143
1108	C	0.930589	0.731901	0.379847
1109	H	0.926726	0.740723	0.409694
1110	O	0.925831	0.6849	0.420263
1111	H	0.946713	0.68435	0.426749
1112	C	0.760976	0.684611	0.672299
1113	C	0.776047	0.70123	0.631436
1114	C	0.806919	0.732162	0.631486
1115	C	0.823489	0.747269	0.339064
1116	C	0.806947	0.732164	0.380157
1117	H	0.819488	0.74084	0.601541
1118	H	0.767455	0.688697	0.601461
1119	C	0.776146	0.701063	0.379857
1120	H	0.767249	0.688329	0.409654
1121	O	0.823105	0.743254	0.420411
1122	H	0.823681	0.764694	0.426849
1123	C	0.540962	0.521553	0.671491
1124	C	0.52246	0.538955	0.671542
1125	C	0.986564	0.521636	0.671525
1126	C	0.969156	0.985746	0.671512
1127	C	0.986487	0.967179	0.671481
1128	C	0.522396	0.98567	0.671502
1129	H	0.943205	0.972808	0.671377
1130	H	0.535352	0.972676	0.67136
1131	H	0.535458	0.564896	0.671431
1132	C	0.741057	0.594657	0.671619
1133	C	0.758502	0.630368	0.671966
1134	C	0.741103	0.64869	0.671976
1135	C	0.705319	0.630601	0.671673
1136	C	0.686791	0.594583	0.670835
1137	C	0.705266	0.577017	0.671003
1138	H	0.692729	0.643938	0.672632
1139	H	0.692642	0.551096	0.670081
1140	H	0.784537	0.64336	0.672336
1141	C	0.913664	0.648788	0.671643
1142	C	0.877934	0.63052	0.671959
1143	C	0.859608	0.594816	0.671942
1144	C	0.877697	0.577128	0.671599
1145	C	0.913729	0.594614	0.670795
1146	C	0.931312	0.630644	0.67103
1147	H	0.864349	0.551212	0.672521
1148	H	0.957246	0.643932	0.670142
1149	H	0.864932	0.64355	0.672326
1150	C	0.859454	0.767158	0.67173
1151	C	0.877739	0.749718	0.672121
1152	C	0.913464	0.767103	0.672064
1153	C	0.931146	0.802869	0.671663
1154	C	0.913642	0.821399	0.670838
1155	C	0.877597	0.802935	0.671077
1156	H	0.957075	0.815446	0.672565
1157	H	0.864286	0.815558	0.670182
1158	H	0.86471	0.723699	0.672545
1159	C	0.577335	0.539707	0.671044
1160	C	0.596211	0.530993	0.700454
1161	C	0.631919	0.549026	0.700171
1162	C	0.650394	0.576411	0.003565
1163	C	0.631519	0.584834	0.973378
1164	H	0.644382	0.542296	0.72292
1165	H	0.584058	0.511843	0.723334
1166	C	0.595735	0.566973	0.974314
1167	H	0.583036	0.573569	0.951763
1168	O	0.646889	0.609959	0.942268
1169	H	0.653533	0.600354	0.917274
1170	C	0.96843	0.539872	0.671098
1171	C	0.977138	0.567411	0.700578
1172	C	0.959181	0.58516	0.700242
1173	C	0.931874	0.576366	0.003521
1174	C	0.923447	0.549107	0.97328
1175	H	0.96592	0.604336	0.723011
1176	H	0.996269	0.574359	0.723485
1177	C	0.941225	0.531105	0.974277
1178	H	0.934652	0.511864	0.951655
1179	O	0.898397	0.539466	0.942063
1180	H	0.908095	0.555762	0.91714
1181	C	0.968265	0.93082	0.67104
1182	C	0.940668	0.911968	0.700447
1183	C	0.922973	0.876275	0.700154
1184	C	0.931867	0.857784	0.003545
1185	C	0.959171	0.876632	0.973358
1186	H	0.903784	0.863835	0.722913
1187	H	0.933679	0.92413	0.723327
1188	C	0.97713	0.912402	0.974324
1189	H	0.996405	0.92508	0.951743
1190	O	0.968915	0.861254	0.942238
1191	H	0.952654	0.85462	0.917258
1192	C	0.823682	0.57878	0.005543
1193	C	0.806999	0.57711	0.964681
1194	C	0.776027	0.576981	0.964644
1195	C	0.760954	0.578595	0.672138
1196	C	0.77608	0.57728	0.713294
1197	H	0.767322	0.580707	0.934618
1198	H	0.819499	0.580809	0.934716
1199	C	0.807218	0.577627	0.713058
1200	H	0.819962	0.581546	0.742869
1201	O	0.765098	0.582506	0.753548
1202	H	0.743556	0.561757	0.76002
1203	C	0.929539	0.747231	0.005659
1204	C	0.931156	0.732265	0.964758
1205	C	0.931237	0.701413	0.964718
1206	C	0.929705	0.684738	0.672198
1207	C	0.930947	0.701126	0.713385
1208	H	0.927676	0.689021	0.934692
1209	H	0.927556	0.741106	0.934763
1210	C	0.930589	0.731901	0.713179
1211	H	0.926726	0.740723	0.743027
1212	O	0.925831	0.6849	0.753595
1213	H	0.946713	0.68435	0.760084
1214	C	0.760976	0.684611	0.005633
1215	C	0.776047	0.70123	0.964768
1216	C	0.806919	0.732162	0.964819
1217	C	0.823489	0.747269	0.6724
1218	C	0.806947	0.732164	0.713489
1219	H	0.819488	0.74084	0.934874
1220	H	0.767455	0.688697	0.934793
1221	C	0.776146	0.701063	0.71319
1222	H	0.767249	0.688329	0.742986
1223	O	0.823105	0.743254	0.753743
1224	H	0.823681	0.764694	0.760182
