data_C792H504N144_2018-02-15_10:43:32
#******************************************
#
# CIF file created by Zeo++
# Zeo++ is an open source package to
# analyze microporous materials
#
#*******************************************

_cell_length_a		46.5278   
_cell_length_b		46.5279   
_cell_length_c		29.6048   
_cell_angle_alpha		90   
_cell_angle_beta		90   
_cell_angle_gamma		120   

_symmetry_space_group_name_H-M		'P1'
_symmetry_Int_Tables_number		1
_symmetry_cell_setting		Monoclinic

loop_
_symmetry_equiv_pos_as_xyz
'+x,+y,+z'

loop_
_atom_site_label
_atom_site_type_symbol
_atom_site_fract_x
_atom_site_fract_y
_atom_site_fract_z
1	C	0.028066	0.265603	0.026303
2	C	0.047507	0.301221	0.357587
3	C	0.080888	0.318536	0.342545
4	C	0.095945	0.299263	0.000397
5	C	0.080897	0.26497	0.009837
6	C	0.047115	0.24904	0.023288
7	H	0.036919	0.315509	0.362583
8	H	0.120837	0.311724	0.993212
9	H	0.035964	0.22401	0.026582
10	C	0.139768	0.233986	0.039785
11	C	0.108968	0.233915	0.041418
12	C	0.101703	0.250504	0.006389
13	N	0.124082	0.262722	0.305364
14	C	0.087943	0.221252	0.082498
15	H	0.097855	0.211017	0.107166
16	H	0.063187	0.20151	0.073159
17	H	0.086048	0.241241	0.098923
18	C	0.101563	0.353608	0.004727
19	C	0.107546	0.376887	0.039482
20	C	0.138318	0.407653	0.041205
21	H	0.092269	0.369221	0.067091
22	N	0.124456	0.364458	0.304475
23	H	0.126444	0.418727	0.106936
24	C	0.028066	0.265603	0.359637
25	C	0.047507	0.301221	0.690921
26	C	0.080888	0.318536	0.675879
27	C	0.095945	0.299263	0.333728
28	C	0.080897	0.26497	0.34317
29	C	0.047115	0.24904	0.356621
30	H	0.036919	0.315509	0.695916
31	H	0.120837	0.311724	0.326546
32	H	0.035964	0.22401	0.359917
33	C	0.139768	0.233986	0.373118
34	C	0.108968	0.233915	0.374753
35	C	0.101703	0.250504	0.339721
36	N	0.124082	0.262722	0.638696
37	C	0.087943	0.221252	0.415831
38	H	0.097855	0.211017	0.440499
39	H	0.063187	0.20151	0.406494
40	H	0.086048	0.241241	0.432257
41	C	0.101563	0.353608	0.33806
42	C	0.107546	0.376887	0.372814
43	C	0.138318	0.407653	0.37454
44	H	0.092269	0.369221	0.400424
45	N	0.124456	0.364458	0.637808
46	H	0.126444	0.418727	0.440269
47	C	0.028066	0.265603	0.692971
48	C	0.047507	0.301221	0.024252
49	C	0.080888	0.318536	0.009212
50	C	0.095945	0.299263	0.667063
51	C	0.080897	0.26497	0.676504
52	C	0.047115	0.24904	0.689955
53	H	0.036919	0.315509	0.029248
54	H	0.120837	0.311724	0.659878
55	H	0.035964	0.22401	0.693251
56	C	0.139768	0.233986	0.706452
57	C	0.108968	0.233915	0.708087
58	C	0.101703	0.250504	0.673055
59	N	0.124082	0.262722	0.97203
60	C	0.087943	0.221252	0.749164
61	H	0.097855	0.211017	0.773833
62	H	0.063187	0.20151	0.739828
63	H	0.086048	0.241241	0.765591
64	C	0.101563	0.353608	0.671393
65	C	0.107546	0.376887	0.706148
66	C	0.138318	0.407653	0.707874
67	H	0.092269	0.369221	0.733758
68	N	0.124456	0.364458	0.971142
69	H	0.126444	0.418727	0.773603
70	C	0.028065	0.765602	0.026303
71	C	0.047507	0.80122	0.357587
72	C	0.080889	0.818537	0.342545
73	C	0.095944	0.799262	0.000397
74	C	0.080898	0.764971	0.009837
75	C	0.047114	0.749041	0.023288
76	H	0.036917	0.815507	0.362583
77	H	0.120836	0.811722	0.993212
78	H	0.035964	0.72401	0.026582
79	C	0.139767	0.733984	0.039785
80	C	0.108968	0.733915	0.041418
81	C	0.101704	0.750505	0.006389
82	N	0.124082	0.76272	0.305364
83	C	0.087943	0.721251	0.082498
84	H	0.097853	0.711016	0.107166
85	H	0.063186	0.701508	0.073159
86	H	0.086049	0.741241	0.098923
87	C	0.101565	0.853609	0.004727
88	C	0.107544	0.876885	0.039482
89	C	0.138319	0.907654	0.041205
90	H	0.092269	0.869222	0.067091
91	N	0.124455	0.864457	0.304475
92	H	0.126443	0.918725	0.106936
93	C	0.028065	0.765602	0.359637
94	C	0.047507	0.80122	0.690921
95	C	0.080889	0.818537	0.675879
96	C	0.095944	0.799262	0.333728
97	C	0.080898	0.764971	0.34317
98	C	0.047114	0.749041	0.356621
99	H	0.036917	0.815507	0.695916
100	H	0.120836	0.811722	0.326546
101	H	0.035964	0.72401	0.359917
102	C	0.139767	0.733984	0.373118
103	C	0.108968	0.733915	0.374753
104	C	0.101704	0.750505	0.339721
105	N	0.124082	0.76272	0.638696
106	C	0.087943	0.721251	0.415831
107	H	0.097853	0.711016	0.440499
108	H	0.063186	0.701508	0.406494
109	H	0.086049	0.741241	0.432257
110	C	0.101565	0.853609	0.33806
111	C	0.107544	0.876885	0.372817
112	C	0.138319	0.907654	0.37454
113	H	0.092269	0.869222	0.400424
114	N	0.124455	0.864457	0.637808
115	H	0.126443	0.918725	0.440269
116	C	0.028065	0.765602	0.692971
117	C	0.047507	0.80122	0.024252
118	C	0.080889	0.818537	0.009212
119	C	0.095944	0.799262	0.667063
120	C	0.080898	0.764971	0.676504
121	C	0.047114	0.749041	0.689955
122	H	0.036917	0.815507	0.029248
123	H	0.120836	0.811722	0.659878
124	H	0.035964	0.72401	0.693251
125	C	0.139767	0.733984	0.706452
126	C	0.108968	0.733915	0.708087
127	C	0.101704	0.750505	0.673055
128	N	0.124082	0.76272	0.97203
129	C	0.087943	0.721251	0.749164
130	H	0.097853	0.711016	0.773833
131	H	0.063186	0.701508	0.739828
132	H	0.086049	0.741241	0.765591
133	C	0.101565	0.853609	0.671393
134	C	0.107544	0.876885	0.706148
135	C	0.138319	0.907654	0.707874
136	H	0.092269	0.869222	0.733758
137	N	0.124455	0.864457	0.971142
138	H	0.126443	0.918725	0.773603
139	H	0.227452	0.19807	0.0266
140	C	0.215471	0.249571	0.357614
141	C	0.198109	0.265626	0.342677
142	C	0.217368	0.299983	0.000637
143	H	0.201212	0.224688	0.362566
144	H	0.204879	0.312391	0.993479
145	H	0.227945	0.033417	0.362559
146	C	0.216786	0.420702	0.000488
147	C	0.197497	0.435712	0.009827
148	C	0.215293	0.469493	0.023247
149	H	0.204396	0.39582	0.993206
150	H	0.201379	0.480594	0.026668
151	C	0.163015	0.251167	0.004967
152	H	0.147468	0.226365	0.067353
153	N	0.152189	0.263221	0.304687
154	C	0.162254	0.414838	0.006308
155	N	0.152086	0.392529	0.305216
156	C	0.14663	0.428631	0.08233
157	H	0.151698	0.453411	0.073024
158	H	0.168469	0.430473	0.098825
159	H	0.229678	0.089064	0.067406
160	C	0.224752	0.143514	0.082451
161	H	0.214503	0.123391	0.107155
162	H	0.205035	0.148573	0.07315
163	H	0.227452	0.19807	0.359934
164	C	0.215471	0.249571	0.690948
165	C	0.198109	0.265626	0.676011
166	C	0.217368	0.299983	0.333969
167	H	0.201212	0.224688	0.6959
168	H	0.204879	0.312391	0.326812
169	H	0.227945	0.033417	0.695893
170	C	0.216786	0.420702	0.333822
171	C	0.197497	0.435712	0.34316
172	C	0.215293	0.469493	0.35658
173	H	0.204396	0.39582	0.326538
174	H	0.201379	0.480594	0.360002
175	C	0.163015	0.251167	0.338299
176	H	0.147468	0.226365	0.400688
177	N	0.152189	0.263221	0.638021
178	C	0.162254	0.414838	0.33964
179	N	0.152086	0.392529	0.638551
180	C	0.14663	0.428631	0.415665
181	H	0.151698	0.453411	0.406359
182	H	0.168469	0.430473	0.432159
183	H	0.229678	0.089064	0.400738
184	C	0.224752	0.143514	0.415783
185	H	0.214503	0.123391	0.440489
186	H	0.205035	0.148573	0.406484
187	H	0.227452	0.19807	0.693268
188	C	0.215471	0.249571	0.02428
189	C	0.198109	0.265626	0.009344
190	C	0.217368	0.299983	0.667303
191	H	0.201212	0.224688	0.029232
192	H	0.204879	0.312391	0.660145
193	H	0.227945	0.033417	0.029225
194	C	0.216786	0.420702	0.667158
195	C	0.197497	0.435712	0.676494
196	C	0.215293	0.469493	0.689914
197	H	0.204396	0.39582	0.659872
198	H	0.201379	0.480594	0.693336
199	C	0.163015	0.251167	0.671633
200	H	0.147468	0.226365	0.734022
201	N	0.152189	0.263221	0.971354
202	C	0.162254	0.414838	0.672974
203	N	0.152086	0.392529	0.971885
204	C	0.14663	0.428631	0.748999
205	H	0.151698	0.453411	0.739693
206	H	0.168469	0.430473	0.765493
207	H	0.229678	0.089064	0.734072
208	C	0.224752	0.143514	0.749117
209	H	0.214503	0.123391	0.773823
210	H	0.205035	0.148573	0.739818
211	H	0.227453	0.698071	0.0266
212	C	0.215471	0.749572	0.357614
213	C	0.198109	0.765627	0.342677
214	C	0.217367	0.799981	0.000637
215	H	0.201211	0.724688	0.362566
216	H	0.20488	0.812392	0.993479
217	H	0.227945	0.533418	0.362559
218	C	0.216785	0.920703	0.000488
219	C	0.197496	0.93571	0.009827
220	C	0.215293	0.969494	0.023247
221	H	0.204396	0.895821	0.993206
222	H	0.20138	0.980595	0.026668
223	C	0.163016	0.751168	0.004967
224	H	0.147469	0.726365	0.067353
225	N	0.152188	0.763219	0.304687
226	C	0.162253	0.914836	0.006308
227	N	0.152085	0.892528	0.305216
228	C	0.146631	0.928632	0.08233
229	H	0.151697	0.95341	0.073024
230	H	0.16847	0.930474	0.098825
231	H	0.229678	0.589063	0.067406
232	C	0.224752	0.643513	0.082451
233	H	0.214502	0.623391	0.107155
234	H	0.205035	0.648573	0.07315
235	H	0.227453	0.698071	0.359934
236	C	0.215471	0.749572	0.690948
237	C	0.198109	0.765627	0.676011
238	C	0.217367	0.799981	0.333969
239	H	0.201211	0.724688	0.6959
240	H	0.20488	0.812392	0.326812
241	H	0.227945	0.533418	0.695893
242	C	0.216785	0.920703	0.333822
243	C	0.197496	0.93571	0.34316
244	C	0.215293	0.969494	0.35658
245	H	0.204396	0.895821	0.326538
246	H	0.20138	0.980595	0.360002
247	C	0.163016	0.751168	0.338299
248	H	0.147469	0.726365	0.400688
249	N	0.152188	0.763219	0.638021
250	C	0.162253	0.914836	0.33964
251	N	0.152085	0.892528	0.638551
252	C	0.146631	0.928632	0.415665
253	H	0.151697	0.95341	0.406359
254	H	0.16847	0.930474	0.432159
255	H	0.229678	0.589063	0.400738
256	C	0.224752	0.643513	0.415783
257	H	0.214502	0.623391	0.440489
258	H	0.205035	0.648573	0.406484
259	H	0.227453	0.698071	0.693268
260	C	0.215471	0.749572	0.02428
261	C	0.198109	0.765627	0.009344
262	C	0.217367	0.799981	0.667303
263	H	0.201211	0.724688	0.029232
264	H	0.20488	0.812392	0.660145
265	H	0.227945	0.533418	0.029225
266	C	0.216785	0.920703	0.667158
267	C	0.197496	0.93571	0.676494
268	C	0.215293	0.969494	0.689914
269	H	0.204396	0.895821	0.659872
270	H	0.20138	0.980595	0.693336
271	C	0.163016	0.751168	0.671633
272	H	0.147469	0.726365	0.734022
273	N	0.152188	0.763219	0.971354
274	C	0.162253	0.914836	0.672974
275	N	0.152085	0.892528	0.971885
276	C	0.146631	0.928632	0.748999
277	H	0.151697	0.95341	0.739693
278	H	0.16847	0.930474	0.765493
279	H	0.229678	0.589063	0.734072
280	C	0.224752	0.643513	0.749117
281	H	0.214502	0.623391	0.773823
282	H	0.205035	0.648573	0.739818
283	C	0.269	0.247575	0.026236
284	C	0.252475	0.211971	0.023265
285	C	0.268425	0.194174	0.009669
286	C	0.302691	0.213445	7.3e-05
287	C	0.304618	0.263777	0.357516
288	H	0.318888	0.288646	0.362606
289	H	0.315184	0.201066	0.992773
290	C	0.251096	0.265772	0.026284
291	C	0.251676	0.319206	0.009923
292	C	0.267641	0.301375	0.023248
293	H	0.292667	0.31526	0.026603
294	C	0.26908	0.0247	0.026373
295	C	0.304696	0.043807	0.023461
296	C	0.303249	0.09268	0.000934
297	C	0.268886	0.077523	0.342853
298	C	0.252831	0.044071	0.35758
299	H	0.318607	0.032686	0.026654
300	H	0.315666	0.117592	0.993861
301	C	0.250899	0.488597	0.026298
302	C	0.267146	0.469222	0.357512
303	C	0.25112	0.435808	0.342609
304	H	0.292009	0.479849	0.362667
305	C	0.265606	0.415217	0.004808
306	C	0.28257	0.409018	0.039798
307	C	0.282673	0.378309	0.041496
308	C	0.266211	0.354462	0.006413
309	N	0.254037	0.364652	0.305362
310	H	0.290245	0.424348	0.067362
311	N	0.253587	0.392281	0.304598
312	C	0.295222	0.369923	0.082671
313	H	0.305391	0.390055	0.107363
314	H	0.314987	0.36491	0.073462
315	H	0.275187	0.348029	0.099017
316	C	0.254326	0.098038	0.004906
317	C	0.237254	0.104265	0.039721
318	C	0.237329	0.135072	0.04135
319	C	0.254066	0.158918	0.006345
320	N	0.26613	0.148631	0.305301
321	N	0.266455	0.12094	0.304649
322	H	0.244791	0.165386	0.09883
323	C	0.269	0.247575	0.359569
324	C	0.252475	0.211971	0.356597
325	C	0.268425	0.194174	0.343001
326	C	0.302691	0.213445	0.333405
327	C	0.304618	0.263777	0.69085
328	H	0.318888	0.288646	0.69594
329	H	0.315184	0.201066	0.326106
330	C	0.251096	0.265772	0.359617
331	C	0.251676	0.319206	0.343258
332	C	0.267641	0.301375	0.356584
333	H	0.292667	0.31526	0.359938
334	C	0.26908	0.0247	0.359708
335	C	0.304696	0.043807	0.356796
336	C	0.303249	0.09268	0.334266
337	C	0.268886	0.077523	0.676187
338	C	0.252831	0.044071	0.690914
339	H	0.318607	0.032686	0.359988
340	H	0.315666	0.117592	0.327194
341	C	0.250899	0.488597	0.35963
342	C	0.267146	0.469222	0.690846
343	C	0.25112	0.435808	0.67594
344	H	0.292009	0.479849	0.696001
345	C	0.265606	0.415217	0.338141
346	C	0.28257	0.409018	0.373131
347	C	0.282673	0.378309	0.374831
348	C	0.266211	0.354462	0.339745
349	N	0.254037	0.364652	0.638696
350	H	0.290245	0.424348	0.400695
351	N	0.253587	0.392281	0.637933
352	C	0.295222	0.369923	0.416006
353	H	0.305391	0.390055	0.440698
354	H	0.314987	0.36491	0.406795
355	H	0.275187	0.348029	0.432351
356	C	0.254326	0.098038	0.338239
357	C	0.237254	0.104265	0.373054
358	C	0.237329	0.135072	0.374685
359	C	0.254066	0.158918	0.339677
360	N	0.26613	0.148631	0.638635
361	N	0.266455	0.12094	0.637983
362	H	0.244791	0.165386	0.432166
363	C	0.269	0.247575	0.692903
364	C	0.252475	0.211971	0.689931
365	C	0.268425	0.194174	0.676335
366	C	0.302691	0.213445	0.666739
367	C	0.304618	0.263777	0.024182
368	H	0.318888	0.288646	0.029272
369	H	0.315184	0.201066	0.659439
370	C	0.251096	0.265772	0.692951
371	C	0.251676	0.319206	0.676592
372	C	0.267641	0.301375	0.689917
373	H	0.292667	0.31526	0.693272
374	C	0.26908	0.0247	0.693042
375	C	0.304696	0.043807	0.69013
376	C	0.303249	0.09268	0.6676
377	C	0.268886	0.077523	0.009519
378	C	0.252831	0.044071	0.024246
379	H	0.318607	0.032686	0.693322
380	H	0.315666	0.117592	0.660527
381	C	0.250899	0.488597	0.692964
382	C	0.267146	0.469222	0.024177
383	C	0.25112	0.435808	0.009274
384	H	0.292009	0.479849	0.029333
385	C	0.265606	0.415217	0.671475
386	C	0.28257	0.409018	0.706465
387	C	0.282673	0.378309	0.708164
388	C	0.266211	0.354462	0.673079
389	N	0.254037	0.364652	0.97203
390	H	0.290245	0.424348	0.734028
391	N	0.253587	0.392281	0.971267
392	C	0.295222	0.369923	0.74934
393	H	0.305391	0.390055	0.774032
394	H	0.314987	0.36491	0.740129
395	H	0.275187	0.348029	0.765685
396	C	0.254326	0.098038	0.671572
397	C	0.237254	0.104265	0.706388
398	C	0.237329	0.135072	0.708016
399	C	0.254066	0.158918	0.673011
400	N	0.26613	0.148631	0.971969
401	N	0.266455	0.12094	0.971317
402	H	0.244791	0.165386	0.7655
403	C	0.268999	0.747574	0.026236
404	C	0.252475	0.711971	0.023265
405	C	0.268424	0.694172	0.009669
406	C	0.302691	0.713446	7.3e-05
407	C	0.304618	0.763778	0.357516
408	H	0.318887	0.788645	0.362606
409	H	0.315183	0.701064	0.992773
410	C	0.251097	0.765773	0.026284
411	C	0.251675	0.819205	0.009923
412	C	0.26764	0.801374	0.023248
413	H	0.292666	0.815259	0.026603
414	C	0.269079	0.524699	0.026373
415	C	0.304694	0.543806	0.023461
416	C	0.303248	0.592679	0.000934
417	C	0.268886	0.577523	0.342853
418	C	0.252829	0.544069	0.35758
419	H	0.318607	0.532686	0.026654
420	H	0.315665	0.617591	0.993861
421	C	0.250901	0.988598	0.026298
422	C	0.267145	0.969221	0.357512
423	C	0.251119	0.935807	0.342609
424	H	0.29201	0.97985	0.362667
425	C	0.265605	0.915216	0.004808
426	C	0.282571	0.909019	0.039798
427	C	0.282672	0.878307	0.041496
428	C	0.266211	0.854463	0.006413
429	N	0.254036	0.86465	0.305362
430	H	0.290245	0.924349	0.067362
431	N	0.253586	0.89228	0.304598
432	C	0.295222	0.869924	0.082671
433	H	0.30539	0.890054	0.107363
434	H	0.314986	0.864909	0.073462
435	H	0.275187	0.84803	0.099017
436	C	0.254326	0.598037	0.004906
437	C	0.237253	0.604264	0.039721
438	C	0.237329	0.635072	0.04135
439	C	0.254065	0.658917	0.006345
440	N	0.26613	0.64863	0.305301
441	N	0.266454	0.620939	0.304649
442	H	0.24479	0.665384	0.09883
443	C	0.268999	0.747574	0.359569
444	C	0.252475	0.711971	0.356597
445	C	0.268424	0.694172	0.343001
446	C	0.302691	0.713446	0.333405
447	C	0.304618	0.763778	0.69085
448	H	0.318887	0.788645	0.69594
449	H	0.315183	0.701064	0.326106
450	C	0.251097	0.765773	0.359617
451	C	0.251675	0.819205	0.343258
452	C	0.26764	0.801374	0.356584
453	H	0.292666	0.815259	0.359938
454	C	0.269079	0.524699	0.359708
455	C	0.304694	0.543806	0.356796
456	C	0.303248	0.592679	0.334266
457	C	0.268886	0.577523	0.676187
458	C	0.252829	0.544069	0.690914
459	H	0.318607	0.532686	0.359988
460	H	0.315665	0.617591	0.327194
461	C	0.250901	0.988598	0.35963
462	C	0.267145	0.969221	0.690846
463	C	0.251119	0.935807	0.67594
464	H	0.29201	0.97985	0.696001
465	C	0.265605	0.915216	0.338141
466	C	0.282571	0.909019	0.373131
467	C	0.282672	0.878307	0.374831
468	C	0.266211	0.854463	0.339745
469	N	0.254036	0.86465	0.638696
470	H	0.290245	0.924349	0.400695
471	N	0.253586	0.89228	0.637933
472	C	0.295222	0.869924	0.416006
473	H	0.30539	0.890054	0.440698
474	H	0.314986	0.864909	0.406795
475	H	0.275187	0.84803	0.432351
476	C	0.254326	0.598037	0.338239
477	C	0.237253	0.604264	0.373054
478	C	0.237329	0.635072	0.374685
479	C	0.254065	0.658917	0.339677
480	N	0.26613	0.64863	0.638635
481	N	0.266454	0.620939	0.637983
482	H	0.24479	0.665384	0.432166
483	C	0.268999	0.747574	0.692903
484	C	0.252475	0.711971	0.689931
485	C	0.268424	0.694172	0.676335
486	C	0.302691	0.713446	0.666739
487	C	0.304618	0.763778	0.024182
488	H	0.318887	0.788645	0.029272
489	H	0.315183	0.701064	0.659439
490	C	0.251097	0.765773	0.692951
491	C	0.251675	0.819205	0.676592
492	C	0.26764	0.801374	0.689917
493	H	0.292666	0.815259	0.693272
494	C	0.269079	0.524699	0.693042
495	C	0.304694	0.543806	0.69013
496	C	0.303248	0.592679	0.6676
497	C	0.268886	0.577523	0.009519
498	C	0.252829	0.544069	0.024246
499	H	0.318607	0.532686	0.693322
500	H	0.315665	0.617591	0.660527
501	C	0.250901	0.988598	0.692964
502	C	0.267145	0.969221	0.024178
503	C	0.251119	0.935807	0.009274
504	H	0.29201	0.97985	0.029333
505	C	0.265605	0.915216	0.671475
506	C	0.282571	0.909019	0.706465
507	C	0.282672	0.878307	0.708164
508	C	0.266211	0.854463	0.673079
509	N	0.254036	0.86465	0.97203
510	H	0.290245	0.924349	0.734028
511	N	0.253586	0.89228	0.971267
512	C	0.295222	0.869924	0.74934
513	H	0.30539	0.890054	0.774032
514	H	0.314986	0.864909	0.740129
515	H	0.275187	0.84803	0.765685
516	C	0.254326	0.598037	0.671572
517	C	0.237253	0.604264	0.706388
518	C	0.237329	0.635072	0.708016
519	C	0.254065	0.658917	0.673011
520	N	0.26613	0.64863	0.971969
521	N	0.266454	0.620939	0.971317
522	H	0.24479	0.665384	0.7655
523	C	0.491965	0.247751	0.026283
524	C	0.472936	0.264328	0.02321
525	C	0.439154	0.24841	0.009803
526	C	0.424049	0.214099	0.000505
527	C	0.439081	0.194807	0.342728
528	C	0.472502	0.21213	0.357641
529	H	0.484089	0.289358	0.026545
530	H	0.483092	0.197844	0.362647
531	H	0.399153	0.201638	0.993364
532	C	0.321959	0.247767	0.342336
533	C	0.322508	0.077623	0.010174
534	C	0.357057	0.262216	0.004717
535	C	0.380209	0.279278	0.039667
536	C	0.411039	0.279414	0.041348
537	C	0.418445	0.26297	0.006271
538	N	0.396078	0.250743	0.305219
539	H	0.372542	0.286959	0.067212
540	N	0.367958	0.250219	0.304459
541	C	0.432	0.292024	0.082493
542	H	0.422038	0.302201	0.107171
543	H	0.456765	0.311796	0.073238
544	H	0.433895	0.272021	0.098872
545	C	0.418388	0.15973	0.004977
546	C	0.412408	0.136487	0.039785
547	C	0.381686	0.105679	0.041523
548	C	0.357767	0.098407	0.006592
549	N	0.367849	0.12074	0.305527
550	H	0.427782	0.144201	0.067296
551	N	0.395451	0.148843	0.304774
552	C	0.373406	0.084708	0.082645
553	H	0.393609	0.094634	0.107228
554	H	0.368344	0.059931	0.073333
555	H	0.351568	0.082853	0.099157
556	C	0.491965	0.247751	0.359617
557	C	0.472936	0.264328	0.356543
558	C	0.439154	0.24841	0.343136
559	C	0.424049	0.214099	0.333836
560	C	0.439081	0.194807	0.676062
561	C	0.472502	0.21213	0.690975
562	H	0.484089	0.289358	0.35988
563	H	0.483092	0.197844	0.695981
564	H	0.399153	0.201638	0.326696
565	C	0.321959	0.247767	0.67567
566	C	0.322508	0.077623	0.343508
567	C	0.357057	0.262216	0.338049
568	C	0.380209	0.279278	0.373
569	C	0.411039	0.279414	0.374682
570	C	0.418445	0.26297	0.339603
571	N	0.396078	0.250743	0.638554
572	H	0.372542	0.286959	0.400546
573	N	0.367958	0.250219	0.637794
574	C	0.432	0.292024	0.415827
575	H	0.422038	0.302201	0.440506
576	H	0.456765	0.311796	0.406572
577	H	0.433895	0.272021	0.432206
578	C	0.418388	0.15973	0.338309
579	C	0.412408	0.136487	0.373118
580	C	0.381686	0.105679	0.374858
581	C	0.357767	0.098407	0.339927
582	N	0.367849	0.12074	0.638862
583	H	0.427782	0.144201	0.40063
584	N	0.395451	0.148843	0.638108
585	C	0.373406	0.084708	0.415979
586	H	0.393609	0.094634	0.440563
587	H	0.368344	0.059931	0.406667
588	H	0.351568	0.082853	0.43249
589	C	0.491965	0.247751	0.692951
590	C	0.472936	0.264328	0.689877
591	C	0.439154	0.24841	0.67647
592	C	0.424049	0.214099	0.667171
593	C	0.439081	0.194807	0.009394
594	C	0.472502	0.21213	0.024308
595	H	0.484089	0.289358	0.693214
596	H	0.483092	0.197844	0.029313
597	H	0.399153	0.201638	0.66003
598	C	0.321959	0.247767	0.009002
599	C	0.322508	0.077623	0.676842
600	C	0.357057	0.262216	0.671383
601	C	0.380209	0.279278	0.706334
602	C	0.411039	0.279414	0.708016
603	C	0.418445	0.26297	0.672937
604	N	0.396078	0.250743	0.971888
605	H	0.372542	0.286959	0.73388
606	N	0.367958	0.250219	0.971128
607	C	0.432	0.292024	0.749161
608	H	0.422038	0.302201	0.773839
609	H	0.456765	0.311796	0.739906
610	H	0.433895	0.272021	0.76554
611	C	0.418388	0.15973	0.671643
612	C	0.412408	0.136487	0.706452
613	C	0.381686	0.105679	0.708191
614	C	0.357767	0.098407	0.673258
615	N	0.367849	0.12074	0.972196
616	H	0.427782	0.144201	0.733964
617	N	0.395451	0.148843	0.971442
618	C	0.373406	0.084708	0.749313
619	H	0.393609	0.094634	0.773897
620	H	0.368344	0.059931	0.74
621	H	0.351568	0.082853	0.765824
622	C	0.491965	0.747751	0.026283
623	C	0.472937	0.764329	0.02321
624	C	0.439155	0.748411	0.009803
625	C	0.424049	0.714098	0.000505
626	C	0.439081	0.694808	0.342728
627	C	0.472502	0.71213	0.357641
628	H	0.484088	0.789357	0.026545
629	H	0.483092	0.697843	0.362647
630	H	0.399151	0.701637	0.993364
631	C	0.321958	0.747765	0.342336
632	C	0.322509	0.577622	0.010174
633	C	0.357058	0.762217	0.004717
634	C	0.380209	0.779276	0.039667
635	C	0.411039	0.779415	0.041348
636	C	0.418446	0.762971	0.006271
637	N	0.396078	0.750744	0.305219
638	H	0.372542	0.786957	0.067212
639	N	0.367958	0.750217	0.304459
640	C	0.432001	0.792025	0.082493
641	H	0.422037	0.8022	0.107171
642	H	0.456766	0.811797	0.073238
643	H	0.433894	0.77202	0.098872
644	C	0.418388	0.659731	0.004977
645	C	0.412407	0.636487	0.039785
646	C	0.381686	0.605678	0.041523
647	C	0.357767	0.598407	0.006592
648	N	0.367848	0.62074	0.305527
649	H	0.427782	0.6442	0.067296
650	N	0.395451	0.648843	0.304774
651	C	0.373406	0.584708	0.082645
652	H	0.393609	0.594635	0.107228
653	H	0.368344	0.55993	0.073333
654	H	0.351566	0.582851	0.099157
655	C	0.491965	0.747751	0.359617
656	C	0.472937	0.764329	0.356543
657	C	0.439155	0.748411	0.343136
658	C	0.424049	0.714098	0.333836
659	C	0.439081	0.694808	0.676062
660	C	0.472502	0.71213	0.690975
661	H	0.484088	0.789357	0.35988
662	H	0.483092	0.697843	0.695981
663	H	0.399151	0.701637	0.326696
664	C	0.321958	0.747765	0.67567
665	C	0.322509	0.577622	0.343508
666	C	0.357058	0.762217	0.338049
667	C	0.380209	0.779276	0.373
668	C	0.411039	0.779415	0.374682
669	C	0.418446	0.762971	0.339603
670	N	0.396078	0.750744	0.638554
671	H	0.372542	0.786957	0.400546
672	N	0.367958	0.750217	0.637794
673	C	0.432001	0.792025	0.415827
674	H	0.422037	0.8022	0.440506
675	H	0.456766	0.811797	0.406572
676	H	0.433894	0.77202	0.432206
677	C	0.418388	0.659731	0.338309
678	C	0.412407	0.636487	0.373118
679	C	0.381686	0.605678	0.374858
680	C	0.357767	0.598407	0.339927
681	N	0.367848	0.62074	0.638862
682	H	0.427782	0.6442	0.40063
683	N	0.395451	0.648843	0.638108
684	C	0.373406	0.584708	0.415979
685	H	0.393609	0.594635	0.440563
686	H	0.368344	0.55993	0.406667
687	H	0.351566	0.582851	0.43249
688	C	0.491965	0.747751	0.692951
689	C	0.472937	0.764329	0.689877
690	C	0.439155	0.748411	0.67647
691	C	0.424049	0.714098	0.667171
692	C	0.439081	0.694808	0.009394
693	C	0.472502	0.71213	0.024308
694	H	0.484088	0.789357	0.693214
695	H	0.483092	0.697843	0.029313
696	H	0.399151	0.701637	0.66003
697	C	0.321958	0.747765	0.009002
698	C	0.322509	0.577622	0.676842
699	C	0.357058	0.762217	0.671383
700	C	0.380209	0.779276	0.706334
701	C	0.411039	0.779415	0.708016
702	C	0.418446	0.762971	0.672937
703	N	0.396078	0.750744	0.971888
704	H	0.372542	0.786957	0.73388
705	N	0.367958	0.750217	0.971128
706	C	0.432001	0.792025	0.749161
707	H	0.422037	0.8022	0.773839
708	H	0.456766	0.811797	0.739906
709	H	0.433894	0.77202	0.76554
710	C	0.418388	0.659731	0.671643
711	C	0.412407	0.636487	0.706452
712	C	0.381686	0.605678	0.708191
713	C	0.357767	0.598407	0.673258
714	N	0.367848	0.62074	0.972196
715	H	0.427782	0.6442	0.733964
716	N	0.395451	0.648843	0.971442
717	C	0.373406	0.584708	0.749313
718	H	0.393609	0.594635	0.773897
719	H	0.368344	0.55993	0.74
720	H	0.351566	0.582851	0.765824
721	C	0.991965	0.247751	0.026283
722	C	0.972936	0.264328	0.02321
723	C	0.939154	0.24841	0.009803
724	C	0.924049	0.214099	0.000505
725	C	0.939081	0.194807	0.342728
726	C	0.972504	0.21213	0.357641
727	H	0.984089	0.289358	0.026545
728	H	0.983092	0.197844	0.362647
729	H	0.899153	0.201638	0.993364
730	C	0.528066	0.265603	0.026303
731	C	0.547507	0.301221	0.357587
732	C	0.580889	0.318536	0.342545
733	C	0.595945	0.299263	0.000397
734	C	0.580899	0.26497	0.009837
735	C	0.547115	0.24904	0.023288
736	H	0.536919	0.315509	0.362583
737	H	0.620838	0.311724	0.993212
738	H	0.535964	0.22401	0.026582
739	C	0.769	0.247575	0.026236
740	C	0.752476	0.211971	0.023265
741	C	0.768425	0.194174	0.009669
742	C	0.802691	0.213445	7.3e-05
743	C	0.821959	0.247767	0.342336
744	C	0.804619	0.263777	0.357516
745	H	0.727453	0.19807	0.0266
746	H	0.818888	0.288646	0.362606
747	H	0.815185	0.201066	0.992773
748	C	0.751097	0.265772	0.026284
749	C	0.715471	0.249571	0.357614
750	C	0.698109	0.265626	0.342677
751	C	0.717368	0.299983	0.000637
752	C	0.751677	0.319206	0.009923
753	C	0.767641	0.301375	0.023248
754	H	0.701211	0.224688	0.362566
755	H	0.704881	0.312391	0.993479
756	H	0.792668	0.31526	0.026603
757	C	0.76908	0.0247	0.026373
758	C	0.804696	0.043807	0.023461
759	C	0.822511	0.077623	0.010174
760	C	0.803249	0.09268	0.000934
761	C	0.768886	0.077523	0.342853
762	C	0.752831	0.044071	0.35758
763	H	0.818607	0.032686	0.026654
764	H	0.727946	0.033417	0.362559
765	H	0.815666	0.117592	0.993861
766	C	0.750899	0.488597	0.026298
767	C	0.767147	0.469222	0.357512
768	C	0.751121	0.435808	0.342609
769	C	0.716786	0.420702	0.000488
770	C	0.697498	0.435712	0.009827
771	C	0.715294	0.469493	0.023247
772	H	0.79201	0.479849	0.362667
773	H	0.704396	0.39582	0.993206
774	H	0.70138	0.480594	0.026668
775	C	0.663015	0.251167	0.004967
776	C	0.639768	0.233986	0.039785
777	C	0.608969	0.233915	0.041418
778	C	0.601703	0.250504	0.006389
779	N	0.624081	0.262722	0.305364
780	H	0.64747	0.226365	0.067353
781	N	0.652189	0.263221	0.304687
782	C	0.587943	0.221252	0.082498
783	H	0.597855	0.211017	0.107166
784	H	0.563186	0.20151	0.073159
785	H	0.586047	0.241241	0.098923
786	C	0.765606	0.415217	0.004808
787	C	0.782572	0.409018	0.039798
788	C	0.782673	0.378309	0.041496
789	C	0.766212	0.354462	0.006413
790	N	0.754038	0.364652	0.305362
791	H	0.790245	0.424348	0.067362
792	N	0.753588	0.392281	0.304598
793	C	0.795223	0.369923	0.082671
794	H	0.805392	0.390055	0.107363
795	H	0.814987	0.36491	0.073462
796	H	0.775186	0.348029	0.099017
797	C	0.601563	0.353608	0.004727
798	C	0.607546	0.376887	0.039482
799	C	0.638319	0.407653	0.041205
800	C	0.662254	0.414838	0.006308
801	N	0.652087	0.392529	0.305216
802	H	0.59227	0.369221	0.067091
803	N	0.624457	0.364458	0.304475
804	C	0.646631	0.428631	0.08233
805	H	0.626445	0.418727	0.106936
806	H	0.651699	0.453411	0.073024
807	H	0.668469	0.430473	0.098825
808	C	0.857057	0.262216	0.004717
809	C	0.880209	0.279278	0.039667
810	C	0.911039	0.279414	0.041348
811	C	0.918447	0.26297	0.006271
812	N	0.896078	0.250743	0.305219
813	H	0.872544	0.286959	0.067212
814	N	0.86796	0.250219	0.304459
815	C	0.932002	0.292024	0.082493
816	H	0.922038	0.302201	0.107171
817	H	0.956765	0.311796	0.073238
818	H	0.933897	0.272021	0.098872
819	C	0.754326	0.098038	0.004906
820	C	0.737254	0.104265	0.039721
821	C	0.737329	0.135072	0.04135
822	C	0.754067	0.158918	0.006345
823	N	0.76613	0.148631	0.305301
824	H	0.729679	0.089064	0.067406
825	N	0.766454	0.12094	0.304649
826	C	0.724753	0.143514	0.082451
827	H	0.714503	0.123391	0.107155
828	H	0.705036	0.148573	0.07315
829	H	0.744792	0.165386	0.09883
830	C	0.918388	0.15973	0.004977
831	C	0.912408	0.136487	0.039785
832	C	0.881686	0.105679	0.041523
833	C	0.857767	0.098407	0.006592
834	N	0.867849	0.12074	0.305527
835	H	0.927785	0.144201	0.067296
836	N	0.895451	0.148843	0.304774
837	C	0.873406	0.084708	0.082645
838	H	0.893609	0.094634	0.107228
839	H	0.868344	0.059931	0.073333
840	H	0.851568	0.082853	0.099157
841	C	0.991965	0.247751	0.359617
842	C	0.972936	0.264328	0.356543
843	C	0.939154	0.24841	0.343136
844	C	0.924049	0.214099	0.333836
845	C	0.939081	0.194807	0.676062
846	C	0.972504	0.21213	0.690975
847	H	0.984089	0.289358	0.35988
848	H	0.983092	0.197844	0.695981
849	H	0.899153	0.201638	0.326696
850	C	0.528066	0.265603	0.359637
851	C	0.547507	0.301221	0.690921
852	C	0.580889	0.318536	0.675879
853	C	0.595945	0.299263	0.333728
854	C	0.580899	0.26497	0.34317
855	C	0.547115	0.24904	0.356621
856	H	0.536919	0.315509	0.695916
857	H	0.620838	0.311724	0.326546
858	H	0.535964	0.22401	0.359917
859	C	0.769	0.247575	0.359569
860	C	0.752476	0.211971	0.356597
861	C	0.768425	0.194174	0.343001
862	C	0.802691	0.213445	0.333405
863	C	0.821959	0.247767	0.67567
864	C	0.804619	0.263777	0.69085
865	H	0.727453	0.19807	0.359934
866	H	0.818888	0.288646	0.69594
867	H	0.815185	0.201066	0.326106
868	C	0.751097	0.265772	0.359617
869	C	0.715471	0.249571	0.690948
870	C	0.698109	0.265626	0.676011
871	C	0.717368	0.299983	0.333969
872	C	0.751677	0.319206	0.343258
873	C	0.767641	0.301375	0.356584
874	H	0.701211	0.224688	0.6959
875	H	0.704881	0.312391	0.326812
876	H	0.792668	0.31526	0.359938
877	C	0.76908	0.0247	0.359708
878	C	0.804696	0.043807	0.356796
879	C	0.822511	0.077623	0.343508
880	C	0.803249	0.09268	0.334266
881	C	0.768886	0.077523	0.676187
882	C	0.752831	0.044071	0.690914
883	H	0.818607	0.032686	0.359988
884	H	0.727946	0.033417	0.695893
885	H	0.815666	0.117592	0.327194
886	C	0.750899	0.488597	0.35963
887	C	0.767147	0.469222	0.690846
888	C	0.751121	0.435808	0.67594
889	C	0.716786	0.420702	0.333822
890	C	0.697498	0.435712	0.34316
891	C	0.715294	0.469493	0.35658
892	H	0.79201	0.479849	0.696001
893	H	0.704396	0.39582	0.326538
894	H	0.70138	0.480594	0.360002
895	C	0.663015	0.251167	0.338299
896	C	0.639768	0.233986	0.373118
897	C	0.608969	0.233915	0.374753
898	C	0.601703	0.250504	0.339721
899	N	0.624081	0.262722	0.638696
900	H	0.64747	0.226365	0.400688
901	N	0.652189	0.263221	0.638021
902	C	0.587943	0.221252	0.415831
903	H	0.597855	0.211017	0.440499
904	H	0.563186	0.20151	0.406494
905	H	0.586047	0.241241	0.432257
906	C	0.765606	0.415217	0.338141
907	C	0.782572	0.409018	0.373131
908	C	0.782673	0.378309	0.374831
909	C	0.766212	0.354462	0.339745
910	N	0.754038	0.364652	0.638696
911	H	0.790245	0.424348	0.400695
912	N	0.753588	0.392281	0.637933
913	C	0.795223	0.369923	0.416006
914	H	0.805392	0.390055	0.440698
915	H	0.814987	0.36491	0.406795
916	H	0.775186	0.348029	0.432351
917	C	0.601563	0.353608	0.33806
918	C	0.607546	0.376887	0.372814
919	C	0.638319	0.407653	0.37454
920	C	0.662254	0.414838	0.33964
921	N	0.652087	0.392529	0.638551
922	H	0.59227	0.369221	0.400424
923	N	0.624457	0.364458	0.637808
924	C	0.646631	0.428631	0.415665
925	H	0.626445	0.418727	0.440269
926	H	0.651699	0.453411	0.406359
927	H	0.668469	0.430473	0.432159
928	C	0.857057	0.262216	0.338049
929	C	0.880209	0.279278	0.373
930	C	0.911039	0.279414	0.374682
931	C	0.918447	0.26297	0.339603
932	N	0.896078	0.250743	0.638554
933	H	0.872544	0.286959	0.400546
934	N	0.86796	0.250219	0.637794
935	C	0.932002	0.292024	0.415827
936	H	0.922038	0.302201	0.440506
937	H	0.956765	0.311796	0.406572
938	H	0.933897	0.272021	0.432206
939	C	0.754326	0.098038	0.338239
940	C	0.737254	0.104265	0.373054
941	C	0.737329	0.135072	0.374685
942	C	0.754067	0.158918	0.339677
943	N	0.76613	0.148631	0.638635
944	H	0.729679	0.089064	0.400738
945	N	0.766454	0.12094	0.637983
946	C	0.724753	0.143514	0.415783
947	H	0.714503	0.123391	0.440489
948	H	0.705036	0.148573	0.406484
949	H	0.744792	0.165386	0.432166
950	C	0.918388	0.15973	0.338309
951	C	0.912408	0.136487	0.373118
952	C	0.881686	0.105679	0.374858
953	C	0.857767	0.098407	0.339927
954	N	0.867849	0.12074	0.638862
955	H	0.927785	0.144201	0.40063
956	N	0.895451	0.148843	0.638108
957	C	0.873406	0.084708	0.415979
958	H	0.893609	0.094634	0.440563
959	H	0.868344	0.059931	0.406667
960	H	0.851568	0.082853	0.43249
961	C	0.991965	0.247751	0.692951
962	C	0.972936	0.264328	0.689877
963	C	0.939154	0.24841	0.67647
964	C	0.924049	0.214099	0.667171
965	C	0.939081	0.194807	0.009394
966	C	0.972504	0.21213	0.024308
967	H	0.984089	0.289358	0.693214
968	H	0.983092	0.197844	0.029313
969	H	0.899153	0.201638	0.66003
970	C	0.528066	0.265603	0.692971
971	C	0.547507	0.301221	0.024252
972	C	0.580889	0.318536	0.009212
973	C	0.595945	0.299263	0.667063
974	C	0.580899	0.26497	0.676504
975	C	0.547115	0.24904	0.689955
976	H	0.536919	0.315509	0.029248
977	H	0.620838	0.311724	0.659878
978	H	0.535964	0.22401	0.693251
979	C	0.769	0.247575	0.692903
980	C	0.752476	0.211971	0.689931
981	C	0.768425	0.194174	0.676335
982	C	0.802691	0.213445	0.666739
983	C	0.821959	0.247767	0.009002
984	C	0.804619	0.263777	0.024182
985	H	0.727453	0.19807	0.693268
986	H	0.818888	0.288646	0.029272
987	H	0.815185	0.201066	0.659439
988	C	0.751097	0.265772	0.692951
989	C	0.715471	0.249571	0.02428
990	C	0.698109	0.265626	0.009344
991	C	0.717368	0.299983	0.667303
992	C	0.751677	0.319206	0.676592
993	C	0.767641	0.301375	0.689917
994	H	0.701211	0.224688	0.029232
995	H	0.704881	0.312391	0.660145
996	H	0.792668	0.31526	0.693272
997	C	0.76908	0.0247	0.693042
998	C	0.804696	0.043807	0.69013
999	C	0.822511	0.077623	0.676842
1000	C	0.803249	0.09268	0.6676
1001	C	0.768886	0.077523	0.009519
1002	C	0.752831	0.044071	0.024246
1003	H	0.818607	0.032686	0.693322
1004	H	0.727946	0.033417	0.029225
1005	H	0.815666	0.117592	0.660527
1006	C	0.750899	0.488597	0.692964
1007	C	0.767147	0.469222	0.024177
1008	C	0.751121	0.435808	0.009274
1009	C	0.716786	0.420702	0.667158
1010	C	0.697498	0.435712	0.676494
1011	C	0.715294	0.469493	0.689914
1012	H	0.79201	0.479849	0.029333
1013	H	0.704396	0.39582	0.659872
1014	H	0.70138	0.480594	0.693336
1015	C	0.663015	0.251167	0.671633
1016	C	0.639768	0.233986	0.706452
1017	C	0.608969	0.233915	0.708087
1018	C	0.601703	0.250504	0.673055
1019	N	0.624081	0.262722	0.97203
1020	H	0.64747	0.226365	0.734022
1021	N	0.652189	0.263221	0.971354
1022	C	0.587943	0.221252	0.749164
1023	H	0.597855	0.211017	0.773833
1024	H	0.563186	0.20151	0.739828
1025	H	0.586047	0.241241	0.765591
1026	C	0.765606	0.415217	0.671475
1027	C	0.782572	0.409018	0.706465
1028	C	0.782673	0.378309	0.708164
1029	C	0.766212	0.354462	0.673079
1030	N	0.754038	0.364652	0.97203
1031	H	0.790245	0.424348	0.734028
1032	N	0.753588	0.392281	0.971267
1033	C	0.795223	0.369923	0.74934
1034	H	0.805392	0.390055	0.774032
1035	H	0.814987	0.36491	0.740129
1036	H	0.775186	0.348029	0.765685
1037	C	0.601563	0.353608	0.671393
1038	C	0.607546	0.376887	0.706148
1039	C	0.638319	0.407653	0.707874
1040	C	0.662254	0.414838	0.672974
1041	N	0.652087	0.392529	0.971885
1042	H	0.59227	0.369221	0.733758
1043	N	0.624457	0.364458	0.971142
1044	C	0.646631	0.428631	0.748999
1045	H	0.626445	0.418727	0.773603
1046	H	0.651699	0.453411	0.739693
1047	H	0.668469	0.430473	0.765493
1048	C	0.857057	0.262216	0.671383
1049	C	0.880209	0.279278	0.706334
1050	C	0.911039	0.279414	0.708016
1051	C	0.918447	0.26297	0.672937
1052	N	0.896078	0.250743	0.971888
1053	H	0.872544	0.286959	0.73388
1054	N	0.86796	0.250219	0.971128
1055	C	0.932002	0.292024	0.749161
1056	H	0.922038	0.302201	0.773839
1057	H	0.956765	0.311796	0.739906
1058	H	0.933897	0.272021	0.76554
1059	C	0.754326	0.098038	0.671572
1060	C	0.737254	0.104265	0.706388
1061	C	0.737329	0.135072	0.708016
1062	C	0.754067	0.158918	0.673011
1063	N	0.76613	0.148631	0.971969
1064	H	0.729679	0.089064	0.734072
1065	N	0.766454	0.12094	0.971317
1066	C	0.724753	0.143514	0.749117
1067	H	0.714503	0.123391	0.773823
1068	H	0.705036	0.148573	0.739818
1069	H	0.744792	0.165386	0.7655
1070	C	0.918388	0.15973	0.671643
1071	C	0.912408	0.136487	0.706452
1072	C	0.881686	0.105679	0.708191
1073	C	0.857767	0.098407	0.673258
1074	N	0.867849	0.12074	0.972196
1075	H	0.927785	0.144201	0.733964
1076	N	0.895451	0.148843	0.971442
1077	C	0.873406	0.084708	0.749313
1078	H	0.893609	0.094634	0.773897
1079	H	0.868344	0.059931	0.74
1080	H	0.851568	0.082853	0.765824
1081	C	0.991966	0.747751	0.026283
1082	C	0.972938	0.764329	0.02321
1083	C	0.939156	0.748411	0.009803
1084	C	0.92405	0.714098	0.000505
1085	C	0.939082	0.694808	0.342728
1086	C	0.972503	0.71213	0.357641
1087	H	0.984087	0.789357	0.026545
1088	H	0.983093	0.697843	0.362647
1089	H	0.899151	0.701637	0.993364
1090	C	0.528066	0.765602	0.026303
1091	C	0.547507	0.80122	0.357587
1092	C	0.580889	0.818537	0.342545
1093	C	0.595945	0.799262	0.000397
1094	C	0.580898	0.764971	0.009837
1095	C	0.547116	0.749041	0.023288
1096	H	0.536918	0.815507	0.362583
1097	H	0.620836	0.811722	0.993212
1098	H	0.535964	0.72401	0.026582
1099	C	0.769	0.747574	0.026236
1100	C	0.752476	0.711971	0.023265
1101	C	0.768426	0.694172	0.009669
1102	C	0.802693	0.713446	7.3e-05
1103	C	0.821959	0.747765	0.342336
1104	C	0.804619	0.763778	0.357516
1105	H	0.727452	0.698071	0.0266
1106	H	0.818888	0.788645	0.362606
1107	H	0.815183	0.701064	0.992773
1108	C	0.751096	0.765773	0.026284
1109	C	0.715471	0.749572	0.357614
1110	C	0.698109	0.765627	0.342677
1111	C	0.717366	0.799981	0.000637
1112	C	0.751675	0.819205	0.009923
1113	C	0.767639	0.801374	0.023248
1114	H	0.701212	0.724688	0.362566
1115	H	0.70488	0.812392	0.993479
1116	H	0.792666	0.815259	0.026603
1117	C	0.769079	0.524699	0.026373
1118	C	0.804694	0.543806	0.023461
1119	C	0.822509	0.577622	0.010174
1120	C	0.803249	0.592679	0.000934
1121	C	0.768887	0.577523	0.342853
1122	C	0.752829	0.544069	0.35758
1123	H	0.818606	0.532686	0.026654
1124	H	0.727945	0.533418	0.362559
1125	H	0.815664	0.617591	0.993861
1126	C	0.750901	0.988598	0.026298
1127	C	0.767145	0.969221	0.357512
1128	C	0.751119	0.935807	0.342609
1129	C	0.716787	0.920703	0.000488
1130	C	0.697496	0.93571	0.009827
1131	C	0.715293	0.969494	0.023247
1132	H	0.792011	0.97985	0.362667
1133	H	0.704396	0.895821	0.993206
1134	H	0.70138	0.980595	0.026668
1135	C	0.663016	0.751168	0.004967
1136	C	0.639769	0.733984	0.039785
1137	C	0.608968	0.733915	0.041418
1138	C	0.601704	0.750505	0.006389
1139	N	0.624082	0.76272	0.305364
1140	H	0.647469	0.726365	0.067353
1141	N	0.652188	0.763219	0.304687
1142	C	0.587943	0.721251	0.082498
1143	H	0.597856	0.711016	0.107166
1144	H	0.563186	0.701508	0.073159
1145	H	0.586049	0.741241	0.098923
1146	C	0.765607	0.915216	0.004808
1147	C	0.782571	0.909019	0.039798
1148	C	0.782673	0.878307	0.041496
1149	C	0.766212	0.854463	0.006413
1150	N	0.754036	0.86465	0.305362
1151	H	0.790245	0.924349	0.067362
1152	N	0.753586	0.89228	0.304598
1153	C	0.795222	0.869924	0.082671
1154	H	0.80539	0.890054	0.107363
1155	H	0.814987	0.864909	0.073462
1156	H	0.775188	0.84803	0.099017
1157	C	0.601564	0.853609	0.004727
1158	C	0.607545	0.876885	0.039482
1159	C	0.638319	0.907654	0.041205
1160	C	0.662253	0.914836	0.006308
1161	N	0.652086	0.892528	0.305216
1162	H	0.59227	0.869222	0.067091
1163	N	0.624455	0.864457	0.304475
1164	C	0.646631	0.928632	0.08233
1165	H	0.626443	0.918725	0.106936
1166	H	0.651698	0.95341	0.073024
1167	H	0.66847	0.930474	0.098825
1168	C	0.857058	0.762217	0.004717
1169	C	0.880209	0.779276	0.039667
1170	C	0.911039	0.779415	0.041348
1171	C	0.918446	0.762971	0.006271
1172	N	0.89608	0.750744	0.305219
1173	H	0.872543	0.786957	0.067212
1174	N	0.867958	0.750217	0.304459
1175	C	0.932002	0.792025	0.082493
1176	H	0.922038	0.8022	0.107171
1177	H	0.956767	0.811797	0.073238
1178	H	0.933895	0.77202	0.098872
1179	C	0.754327	0.598037	0.004906
1180	C	0.737255	0.604264	0.039721
1181	C	0.737328	0.635072	0.04135
1182	C	0.754065	0.658917	0.006345
1183	N	0.76613	0.64863	0.305301
1184	H	0.729678	0.589063	0.067406
1185	N	0.766455	0.620939	0.304649
1186	C	0.724752	0.643513	0.082451
1187	H	0.714504	0.623391	0.107155
1188	H	0.705035	0.648573	0.07315
1189	H	0.74479	0.665384	0.09883
1190	C	0.918389	0.659731	0.004977
1191	C	0.912406	0.636487	0.039785
1192	C	0.881687	0.605678	0.041523
1193	C	0.857768	0.598407	0.006592
1194	N	0.867848	0.62074	0.305527
1195	H	0.927783	0.6442	0.067296
1196	N	0.895452	0.648843	0.304774
1197	C	0.873407	0.584708	0.082645
1198	H	0.89361	0.594635	0.107228
1199	H	0.868344	0.55993	0.073333
1200	H	0.851566	0.582851	0.099157
1201	C	0.991966	0.747751	0.359617
1202	C	0.972938	0.764329	0.356543
1203	C	0.939156	0.748411	0.343136
1204	C	0.92405	0.714098	0.333836
1205	C	0.939082	0.694808	0.676062
1206	C	0.972503	0.71213	0.690975
1207	H	0.984087	0.789357	0.35988
1208	H	0.983093	0.697843	0.695981
1209	H	0.899151	0.701637	0.326696
1210	C	0.528066	0.765602	0.359637
1211	C	0.547507	0.80122	0.690921
1212	C	0.580889	0.818537	0.675879
1213	C	0.595945	0.799262	0.333728
1214	C	0.580898	0.764971	0.34317
1215	C	0.547116	0.749041	0.356621
1216	H	0.536918	0.815507	0.695916
1217	H	0.620836	0.811722	0.326546
1218	H	0.535964	0.72401	0.359917
1219	C	0.769	0.747574	0.359569
1220	C	0.752476	0.711971	0.356597
1221	C	0.768426	0.694172	0.343001
1222	C	0.802693	0.713446	0.333405
1223	C	0.821959	0.747765	0.67567
1224	C	0.804619	0.763778	0.69085
1225	H	0.727452	0.698071	0.359934
1226	H	0.818888	0.788645	0.69594
1227	H	0.815183	0.701064	0.326106
1228	C	0.751096	0.765773	0.359617
1229	C	0.715471	0.749572	0.690948
1230	C	0.698109	0.765627	0.676011
1231	C	0.717366	0.799981	0.333969
1232	C	0.751675	0.819205	0.343258
1233	C	0.767639	0.801374	0.356584
1234	H	0.701212	0.724688	0.6959
1235	H	0.70488	0.812392	0.326812
1236	H	0.792666	0.815259	0.359938
1237	C	0.769079	0.524699	0.359708
1238	C	0.804694	0.543806	0.356796
1239	C	0.822509	0.577622	0.343508
1240	C	0.803249	0.592679	0.334266
1241	C	0.768887	0.577523	0.676187
1242	C	0.752829	0.544069	0.690914
1243	H	0.818606	0.532686	0.359988
1244	H	0.727945	0.533418	0.695893
1245	H	0.815664	0.617591	0.327194
1246	C	0.750901	0.988598	0.35963
1247	C	0.767145	0.969221	0.690846
1248	C	0.751119	0.935807	0.67594
1249	C	0.716787	0.920703	0.333822
1250	C	0.697496	0.93571	0.34316
1251	C	0.715293	0.969494	0.35658
1252	H	0.792011	0.97985	0.696001
1253	H	0.704396	0.895821	0.326538
1254	H	0.70138	0.980595	0.360002
1255	C	0.663016	0.751168	0.338299
1256	C	0.639769	0.733984	0.373118
1257	C	0.608968	0.733915	0.374753
1258	C	0.601704	0.750505	0.339721
1259	N	0.624082	0.76272	0.638696
1260	H	0.647469	0.726365	0.400688
1261	N	0.652188	0.763219	0.638021
1262	C	0.587943	0.721251	0.415831
1263	H	0.597856	0.711016	0.440499
1264	H	0.563186	0.701508	0.406494
1265	H	0.586049	0.741241	0.432257
1266	C	0.765607	0.915216	0.338141
1267	C	0.782571	0.909019	0.373131
1268	C	0.782673	0.878307	0.374831
1269	C	0.766212	0.854463	0.339745
1270	N	0.754036	0.86465	0.638696
1271	H	0.790245	0.924349	0.400695
1272	N	0.753586	0.89228	0.637933
1273	C	0.795222	0.869924	0.416006
1274	H	0.80539	0.890054	0.440698
1275	H	0.814987	0.864909	0.406795
1276	H	0.775188	0.84803	0.432351
1277	C	0.601564	0.853609	0.33806
1278	C	0.607545	0.876885	0.372817
1279	C	0.638319	0.907654	0.37454
1280	C	0.662253	0.914836	0.33964
1281	N	0.652086	0.892528	0.638551
1282	H	0.59227	0.869222	0.400424
1283	N	0.624455	0.864457	0.637808
1284	C	0.646631	0.928632	0.415665
1285	H	0.626443	0.918725	0.440269
1286	H	0.651698	0.95341	0.406359
1287	H	0.66847	0.930474	0.432159
1288	C	0.857058	0.762217	0.338049
1289	C	0.880209	0.779276	0.373
1290	C	0.911039	0.779415	0.374682
1291	C	0.918446	0.762971	0.339603
1292	N	0.89608	0.750744	0.638554
1293	H	0.872543	0.786957	0.400546
1294	N	0.867958	0.750217	0.637794
1295	C	0.932002	0.792025	0.415827
1296	H	0.922038	0.8022	0.440506
1297	H	0.956767	0.811797	0.406572
1298	H	0.933895	0.77202	0.432206
1299	C	0.754327	0.598037	0.338239
1300	C	0.737255	0.604264	0.373054
1301	C	0.737328	0.635072	0.374685
1302	C	0.754065	0.658917	0.339677
1303	N	0.76613	0.64863	0.638635
1304	H	0.729678	0.589063	0.400738
1305	N	0.766455	0.620939	0.637983
1306	C	0.724752	0.643513	0.415783
1307	H	0.714504	0.623391	0.440489
1308	H	0.705035	0.648573	0.406484
1309	H	0.74479	0.665384	0.432166
1310	C	0.918389	0.659731	0.338309
1311	C	0.912406	0.636487	0.373118
1312	C	0.881687	0.605678	0.374858
1313	C	0.857768	0.598407	0.339927
1314	N	0.867848	0.62074	0.638862
1315	H	0.927783	0.6442	0.40063
1316	N	0.895452	0.648843	0.638108
1317	C	0.873407	0.584708	0.415979
1318	H	0.89361	0.594635	0.440563
1319	H	0.868344	0.55993	0.406667
1320	H	0.851566	0.582851	0.43249
1321	C	0.991966	0.747751	0.692951
1322	C	0.972938	0.764329	0.689877
1323	C	0.939156	0.748411	0.67647
1324	C	0.92405	0.714098	0.667171
1325	C	0.939082	0.694808	0.009394
1326	C	0.972503	0.71213	0.024308
1327	H	0.984087	0.789357	0.693214
1328	H	0.983093	0.697843	0.029313
1329	H	0.899151	0.701637	0.66003
1330	C	0.528066	0.765602	0.692971
1331	C	0.547507	0.80122	0.024252
1332	C	0.580889	0.818537	0.009212
1333	C	0.595945	0.799262	0.667063
1334	C	0.580898	0.764971	0.676504
1335	C	0.547116	0.749041	0.689955
1336	H	0.536918	0.815507	0.029248
1337	H	0.620836	0.811722	0.659878
1338	H	0.535964	0.72401	0.693251
1339	C	0.769	0.747574	0.692903
1340	C	0.752476	0.711971	0.689931
1341	C	0.768426	0.694172	0.676335
1342	C	0.802693	0.713446	0.666739
1343	C	0.821959	0.747765	0.009002
1344	C	0.804619	0.763778	0.024182
1345	H	0.727452	0.698071	0.693268
1346	H	0.818888	0.788645	0.029272
1347	H	0.815183	0.701064	0.659439
1348	C	0.751096	0.765773	0.692951
1349	C	0.715471	0.749572	0.02428
1350	C	0.698109	0.765627	0.009344
1351	C	0.717366	0.799981	0.667303
1352	C	0.751675	0.819205	0.676592
1353	C	0.767639	0.801374	0.689917
1354	H	0.701212	0.724688	0.029232
1355	H	0.70488	0.812392	0.660145
1356	H	0.792666	0.815259	0.693272
1357	C	0.769079	0.524699	0.693042
1358	C	0.804694	0.543806	0.69013
1359	C	0.822509	0.577622	0.676842
1360	C	0.803249	0.592679	0.6676
1361	C	0.768887	0.577523	0.009519
1362	C	0.752829	0.544069	0.024246
1363	H	0.818606	0.532686	0.693322
1364	H	0.727945	0.533418	0.029225
1365	H	0.815664	0.617591	0.660527
1366	C	0.750901	0.988598	0.692964
1367	C	0.767145	0.969221	0.024178
1368	C	0.751119	0.935807	0.009274
1369	C	0.716787	0.920703	0.667158
1370	C	0.697496	0.93571	0.676494
1371	C	0.715293	0.969494	0.689914
1372	H	0.792011	0.97985	0.029333
1373	H	0.704396	0.895821	0.659872
1374	H	0.70138	0.980595	0.693336
1375	C	0.663016	0.751168	0.671633
1376	C	0.639769	0.733984	0.706452
1377	C	0.608968	0.733915	0.708087
1378	C	0.601704	0.750505	0.673055
1379	N	0.624082	0.76272	0.97203
1380	H	0.647469	0.726365	0.734022
1381	N	0.652188	0.763219	0.971354
1382	C	0.587943	0.721251	0.749164
1383	H	0.597856	0.711016	0.773833
1384	H	0.563186	0.701508	0.739828
1385	H	0.586049	0.741241	0.765591
1386	C	0.765607	0.915216	0.671475
1387	C	0.782571	0.909019	0.706465
1388	C	0.782673	0.878307	0.708164
1389	C	0.766212	0.854463	0.673079
1390	N	0.754036	0.86465	0.97203
1391	H	0.790245	0.924349	0.734028
1392	N	0.753586	0.89228	0.971267
1393	C	0.795222	0.869924	0.74934
1394	H	0.80539	0.890054	0.774032
1395	H	0.814987	0.864909	0.740129
1396	H	0.775188	0.84803	0.765685
1397	C	0.601564	0.853609	0.671393
1398	C	0.607545	0.876885	0.706148
1399	C	0.638319	0.907654	0.707874
1400	C	0.662253	0.914836	0.672974
1401	N	0.652086	0.892528	0.971885
1402	H	0.59227	0.869222	0.733758
1403	N	0.624455	0.864457	0.971142
1404	C	0.646631	0.928632	0.748999
1405	H	0.626443	0.918725	0.773603
1406	H	0.651698	0.95341	0.739693
1407	H	0.66847	0.930474	0.765493
1408	C	0.857058	0.762217	0.671383
1409	C	0.880209	0.779276	0.706334
1410	C	0.911039	0.779415	0.708016
1411	C	0.918446	0.762971	0.672937
1412	N	0.89608	0.750744	0.971888
1413	H	0.872543	0.786957	0.73388
1414	N	0.867958	0.750217	0.971128
1415	C	0.932002	0.792025	0.749161
1416	H	0.922038	0.8022	0.773839
1417	H	0.956767	0.811797	0.739906
1418	H	0.933895	0.77202	0.76554
1419	C	0.754327	0.598037	0.671572
1420	C	0.737255	0.604264	0.706388
1421	C	0.737328	0.635072	0.708016
1422	C	0.754065	0.658917	0.673011
1423	N	0.76613	0.64863	0.971969
1424	H	0.729678	0.589063	0.734072
1425	N	0.766455	0.620939	0.971317
1426	C	0.724752	0.643513	0.749117
1427	H	0.714504	0.623391	0.773823
1428	H	0.705035	0.648573	0.739818
1429	H	0.74479	0.665384	0.7655
1430	C	0.918389	0.659731	0.671643
1431	C	0.912406	0.636487	0.706452
1432	C	0.881687	0.605678	0.708191
1433	C	0.857768	0.598407	0.673258
1434	N	0.867848	0.62074	0.972196
1435	H	0.927783	0.6442	0.733964
1436	N	0.895452	0.648843	0.971442
1437	C	0.873407	0.584708	0.749313
1438	H	0.89361	0.594635	0.773897
1439	H	0.868344	0.55993	0.74
1440	H	0.851566	0.582851	0.765824
