data_C576H360N144O144_2018-02-15_10:38:53
#******************************************
#
# CIF file created by Zeo++
# Zeo++ is an open source package to
# analyze microporous materials
#
#*******************************************

_cell_length_a		44.7407   
_cell_length_b		44.7407   
_cell_length_c		29.715   
_cell_angle_alpha		90   
_cell_angle_beta		90   
_cell_angle_gamma		120   

_symmetry_space_group_name_H-M		'P1'
_symmetry_Int_Tables_number		1
_symmetry_cell_setting		Monoclinic

loop_
_symmetry_equiv_pos_as_xyz
'+x,+y,+z'

loop_
_atom_site_label
_atom_site_type_symbol
_atom_site_fract_x
_atom_site_fract_y
_atom_site_fract_z
1	C	0.099685	0.300927	0.339105
2	C	0.080031	0.307906	0.307662
3	C	0.043496	0.288552	0.309143
4	C	0.025297	0.261463	0.00701
5	C	0.044914	0.253553	0.03768
6	C	0.081466	0.273818	0.036952
7	H	0.095289	0.268326	0.05966
8	H	0.029985	0.294555	0.286571
9	N	0.097021	0.333242	0.273897
10	N	0.03021	0.226445	0.066827
11	H	0.044253	0.220926	0.086381
12	O	0.089389	0.356692	0.276161
13	O	0.089842	0.32023	0.23517
14	C	0.099685	0.300927	0.672438
15	C	0.080031	0.307906	0.640996
16	C	0.043496	0.288552	0.642477
17	C	0.025297	0.261463	0.340343
18	C	0.044914	0.253553	0.371011
19	C	0.081466	0.273818	0.370284
20	H	0.095289	0.268326	0.392994
21	H	0.029985	0.294555	0.619906
22	N	0.097021	0.333242	0.607232
23	N	0.03021	0.226445	0.400162
24	H	0.044253	0.220926	0.419714
25	O	0.089389	0.356692	0.609494
26	O	0.089842	0.32023	0.568504
27	C	0.099685	0.300927	0.005772
28	C	0.080031	0.307906	0.97433
29	C	0.043496	0.288552	0.97581
30	C	0.025297	0.261463	0.673677
31	C	0.044914	0.253553	0.704345
32	C	0.081466	0.273818	0.703618
33	H	0.095289	0.268326	0.726327
34	H	0.029985	0.294555	0.953239
35	N	0.097021	0.333242	0.940562
36	N	0.03021	0.226445	0.733495
37	H	0.044253	0.220926	0.753047
38	O	0.089389	0.356692	0.942827
39	O	0.089842	0.32023	0.901838
40	C	0.099685	0.800927	0.339105
41	C	0.08003	0.807906	0.307662
42	C	0.043495	0.78855	0.309143
43	C	0.025297	0.761461	0.00701
44	C	0.044912	0.753553	0.03768
45	C	0.081466	0.773818	0.036952
46	H	0.095289	0.768326	0.05966
47	H	0.029985	0.794555	0.286571
48	N	0.09702	0.83324	0.273897
49	N	0.030209	0.726443	0.066827
50	H	0.044251	0.720926	0.086381
51	O	0.08939	0.856692	0.276161
52	O	0.089842	0.82023	0.23517
53	C	0.099685	0.800927	0.672438
54	C	0.08003	0.807906	0.640996
55	C	0.043495	0.78855	0.642477
56	C	0.025297	0.761461	0.340343
57	C	0.044912	0.753553	0.371011
58	C	0.081466	0.773818	0.370284
59	H	0.095289	0.768326	0.392994
60	H	0.029985	0.794555	0.619906
61	N	0.09702	0.83324	0.607232
62	N	0.030209	0.726443	0.400162
63	H	0.044251	0.720926	0.419714
64	O	0.08939	0.856692	0.609494
65	O	0.089842	0.82023	0.568504
66	C	0.099685	0.800927	0.005772
67	C	0.08003	0.807906	0.97433
68	C	0.043495	0.78855	0.97581
69	C	0.025297	0.761461	0.673677
70	C	0.044912	0.753553	0.704345
71	C	0.081466	0.773818	0.703618
72	H	0.095289	0.768326	0.726327
73	H	0.029985	0.794555	0.953239
74	N	0.09702	0.83324	0.940562
75	N	0.030209	0.726443	0.733495
76	H	0.044251	0.720926	0.753047
77	O	0.08939	0.856692	0.942827
78	O	0.089842	0.82023	0.901838
79	C	0.13686	0.319626	0.006058
80	C	0.155785	0.356186	0.006347
81	C	0.155801	0.301996	0.006353
82	H	0.142593	0.27558	0.006773
83	H	0.142575	0.369393	0.006763
84	O	0.155292	0.235093	0.276173
85	C	0.13686	0.319626	0.339391
86	C	0.155785	0.356186	0.33968
87	C	0.155801	0.301996	0.339687
88	H	0.142593	0.27558	0.340104
89	H	0.142575	0.369393	0.340094
90	O	0.155292	0.235093	0.609507
91	C	0.13686	0.319626	0.672724
92	C	0.155785	0.356186	0.673014
93	C	0.155801	0.301996	0.673021
94	H	0.142593	0.27558	0.673438
95	H	0.142575	0.369393	0.673428
96	O	0.155292	0.235093	0.942841
97	C	0.136858	0.819623	0.006058
98	C	0.155784	0.856184	0.006347
99	C	0.1558	0.801996	0.006353
100	H	0.142591	0.775578	0.006773
101	H	0.142574	0.869393	0.006763
102	O	0.155291	0.735092	0.276173
103	C	0.136858	0.819623	0.339391
104	C	0.155784	0.856184	0.33968
105	C	0.1558	0.801996	0.339687
106	H	0.142591	0.775578	0.340104
107	H	0.142574	0.869393	0.340094
108	O	0.155291	0.735092	0.609507
109	C	0.136858	0.819623	0.672724
110	C	0.155784	0.856184	0.673014
111	C	0.1558	0.801996	0.673021
112	H	0.142591	0.775578	0.673438
113	H	0.142574	0.869393	0.673428
114	O	0.155291	0.735092	0.942841
115	C	0.192354	0.375127	0.006068
116	C	0.209989	0.356202	0.006365
117	C	0.192362	0.319633	0.006069
118	C	0.211058	0.301154	0.339115
119	C	0.20408	0.274522	0.307674
120	H	0.21743	0.237826	0.286584
121	N	0.178744	0.266176	0.273909
122	O	0.191756	0.272009	0.235182
123	C	0.210835	0.412302	0.339125
124	C	0.218214	0.467071	0.037687
125	C	0.201914	0.430518	0.036939
126	H	0.182581	0.416695	0.059622
127	N	0.205755	0.481759	0.066771
128	H	0.186339	0.467747	0.08655
129	H	0.213666	0.006285	0.066192
130	C	0.192354	0.375127	0.339401
131	C	0.209989	0.356202	0.339697
132	C	0.192362	0.319633	0.339401
133	C	0.211058	0.301154	0.672448
134	C	0.20408	0.274522	0.641006
135	H	0.21743	0.237826	0.619916
136	N	0.178744	0.266176	0.607242
137	O	0.191756	0.272009	0.568514
138	C	0.210835	0.412302	0.672459
139	C	0.218214	0.467071	0.371021
140	C	0.201914	0.430518	0.370271
141	H	0.182581	0.416695	0.392957
142	N	0.205755	0.481759	0.400104
143	H	0.186339	0.467747	0.419882
144	H	0.213666	0.006285	0.399526
145	C	0.192354	0.375127	0.672734
146	C	0.209989	0.356202	0.673031
147	C	0.192362	0.319633	0.672734
148	C	0.211058	0.301154	0.005783
149	C	0.20408	0.274522	0.97434
150	H	0.21743	0.237826	0.953249
151	N	0.178744	0.266176	0.940576
152	O	0.191756	0.272009	0.901848
153	C	0.210835	0.412302	0.005791
154	C	0.218214	0.467071	0.704355
155	C	0.201914	0.430518	0.703604
156	H	0.182581	0.416695	0.72629
157	N	0.205755	0.481759	0.733438
158	H	0.186339	0.467747	0.753216
159	H	0.213666	0.006285	0.732859
160	C	0.192354	0.875128	0.006068
161	C	0.209989	0.856202	0.006365
162	C	0.19236	0.819631	0.006069
163	C	0.211057	0.801155	0.339115
164	C	0.20408	0.774523	0.307674
165	H	0.217429	0.737825	0.286584
166	N	0.178744	0.766176	0.273909
167	O	0.191755	0.772006	0.235182
168	C	0.210834	0.912302	0.339125
169	C	0.218215	0.967071	0.037687
170	C	0.201914	0.930518	0.036939
171	H	0.182578	0.916693	0.059622
172	N	0.205755	0.981759	0.066771
173	H	0.186338	0.967747	0.08655
174	H	0.213666	0.506285	0.066192
175	C	0.192354	0.875128	0.339401
176	C	0.209989	0.856202	0.339697
177	C	0.19236	0.819631	0.339401
178	C	0.211057	0.801155	0.672448
179	C	0.20408	0.774523	0.641006
180	H	0.217429	0.737825	0.619916
181	N	0.178744	0.766176	0.607242
182	O	0.191755	0.772006	0.568514
183	C	0.210834	0.912302	0.672459
184	C	0.218215	0.967071	0.371021
185	C	0.201914	0.930518	0.370271
186	H	0.182578	0.916693	0.392957
187	N	0.205755	0.981759	0.400104
188	H	0.186338	0.967747	0.419882
189	H	0.213666	0.506285	0.399526
190	C	0.192354	0.875128	0.672734
191	C	0.209989	0.856202	0.673031
192	C	0.19236	0.819631	0.672734
193	C	0.211057	0.801155	0.005783
194	C	0.20408	0.774523	0.97434
195	H	0.217429	0.737825	0.953249
196	N	0.178744	0.766176	0.940576
197	O	0.191755	0.772006	0.901848
198	C	0.210834	0.912302	0.005791
199	C	0.218215	0.967071	0.704355
200	C	0.201914	0.930518	0.703604
201	H	0.182578	0.916693	0.72629
202	N	0.205755	0.981759	0.733438
203	H	0.186338	0.967747	0.753216
204	H	0.213666	0.506285	0.732859
205	H	0.236406	0.369411	0.006796
206	C	0.377241	0.189717	0.005004
207	C	0.358576	0.153205	0.005099
208	C	0.322065	0.134746	0.005005
209	C	0.304217	0.153412	0.005114
210	C	0.322269	0.189923	0.005009
211	C	0.358782	0.20777	0.005111
212	H	0.277765	0.140262	0.004957
213	H	0.372085	0.234223	0.004953
214	H	0.371725	0.139902	0.004948
215	C	0.223434	0.257342	0.309155
216	C	0.250524	0.266233	0.007022
217	C	0.258432	0.293758	0.037692
218	C	0.238167	0.310045	0.036965
219	H	0.243658	0.329358	0.059673
220	C	0.268439	0.247025	0.006288
221	C	0.282941	0.242906	0.299455
222	C	0.300431	0.223822	0.297686
223	C	0.303954	0.208499	0.004631
224	C	0.289233	0.212013	0.045269
225	C	0.271297	0.230646	0.045343
226	H	0.28095	0.254399	0.270667
227	H	0.260497	0.232575	0.074801
228	N	0.31294	0.220675	0.257238
229	H	0.309882	0.230997	0.230039
230	H	0.324406	0.207245	0.253712
231	N	0.293166	0.197298	0.085505
232	N	0.28554	0.306161	0.06684
233	H	0.291059	0.325722	0.086393
234	H	0.302279	0.298416	0.065967
235	O	0.309646	0.220018	0.114698
236	O	0.264484	0.175444	0.10166
237	C	0.237488	0.431963	0.307708
238	C	0.254663	0.468498	0.309191
239	C	0.245752	0.486691	0.007038
240	C	0.264949	0.023813	0.006302
241	C	0.269057	0.042431	0.299468
242	C	0.288146	0.079005	0.297693
243	C	0.303487	0.097854	0.004631
244	C	0.299987	0.079621	0.045266
245	C	0.28135	0.043053	0.045346
246	H	0.257562	0.028944	0.270684
247	H	0.27944	0.030324	0.074798
248	H	0.27419	0.482014	0.286635
249	N	0.291286	0.094658	0.257244
250	H	0.280921	0.081278	0.230059
251	H	0.304687	0.119556	0.253719
252	N	0.314724	0.098271	0.085495
253	N	0.245854	0.414979	0.273959
254	O	0.292016	0.092038	0.114706
255	O	0.276937	0.422613	0.276253
256	O	0.336581	0.091441	0.101628
257	O	0.24004	0.422159	0.235222
258	C	0.488173	0.243547	0.006278
259	C	0.469553	0.229046	0.299445
260	C	0.432979	0.211556	0.297678
261	C	0.414132	0.208033	0.004624
262	C	0.432369	0.222754	0.045261
263	C	0.468937	0.240689	0.045334
264	H	0.483035	0.231035	0.270657
265	H	0.481669	0.251489	0.074791
266	N	0.417321	0.199047	0.25723
267	H	0.4307	0.202104	0.230031
268	H	0.392425	0.187581	0.253705
269	N	0.413722	0.218821	0.085498
270	H	0.505725	0.209706	0.065955
271	O	0.419962	0.20234	0.11469
272	O	0.42055	0.247503	0.101654
273	H	0.236406	0.369411	0.340128
274	C	0.377241	0.189717	0.338338
275	C	0.358576	0.153205	0.338432
276	C	0.322065	0.134746	0.338338
277	C	0.304217	0.153412	0.338445
278	C	0.322269	0.189923	0.338344
279	C	0.358782	0.20777	0.338445
280	H	0.277765	0.140262	0.338291
281	H	0.372085	0.234223	0.338287
282	H	0.371725	0.139902	0.33828
283	C	0.223434	0.257342	0.642487
284	C	0.250524	0.266233	0.340353
285	C	0.258432	0.293758	0.371025
286	C	0.238167	0.310045	0.370298
287	H	0.243658	0.329358	0.393007
288	C	0.268439	0.247025	0.339623
289	C	0.282941	0.242906	0.632788
290	C	0.300431	0.223822	0.631018
291	C	0.303954	0.208499	0.337964
292	C	0.289233	0.212013	0.378603
293	C	0.271297	0.230646	0.378678
294	H	0.28095	0.254399	0.604001
295	H	0.260497	0.232575	0.408134
296	N	0.31294	0.220675	0.590571
297	H	0.309882	0.230997	0.563372
298	H	0.324406	0.207245	0.587044
299	N	0.293166	0.197298	0.418839
300	N	0.28554	0.306161	0.400172
301	H	0.291059	0.325722	0.419728
302	H	0.302279	0.298416	0.3993
303	O	0.309646	0.220018	0.44803
304	O	0.264484	0.175444	0.434993
305	C	0.237488	0.431963	0.64104
306	C	0.254663	0.468498	0.642524
307	C	0.245752	0.486691	0.34037
308	C	0.264949	0.023813	0.339633
309	C	0.269057	0.042431	0.632802
310	C	0.288146	0.079005	0.631025
311	C	0.303487	0.097854	0.337964
312	C	0.299987	0.079621	0.3786
313	C	0.28135	0.043053	0.378681
314	H	0.257562	0.028944	0.604018
315	H	0.27944	0.030324	0.408131
316	H	0.27419	0.482014	0.619966
317	N	0.291286	0.094658	0.590577
318	H	0.280921	0.081278	0.563392
319	H	0.304687	0.119556	0.587054
320	N	0.314724	0.098271	0.418829
321	N	0.245854	0.414979	0.607293
322	O	0.292016	0.092038	0.44804
323	O	0.276937	0.422613	0.609588
324	O	0.336581	0.091441	0.434962
325	O	0.24004	0.422159	0.568555
326	C	0.488173	0.243547	0.33961
327	C	0.469553	0.229046	0.632778
328	C	0.432979	0.211556	0.631011
329	C	0.414132	0.208033	0.337957
330	C	0.432369	0.222754	0.378593
331	C	0.468937	0.240689	0.378667
332	H	0.483035	0.231035	0.603991
333	H	0.481669	0.251489	0.408124
334	N	0.417321	0.199047	0.590564
335	H	0.4307	0.202104	0.563365
336	H	0.392425	0.187581	0.587037
337	N	0.413722	0.218821	0.418832
338	H	0.505725	0.209706	0.399287
339	O	0.419962	0.20234	0.448023
340	O	0.42055	0.247503	0.434986
341	H	0.236406	0.369411	0.673461
342	C	0.377241	0.189717	0.671671
343	C	0.358576	0.153205	0.671765
344	C	0.322065	0.134746	0.671671
345	C	0.304217	0.153412	0.671779
346	C	0.322269	0.189923	0.671674
347	C	0.358782	0.20777	0.671779
348	H	0.277765	0.140262	0.671624
349	H	0.372085	0.234223	0.671621
350	H	0.371725	0.139902	0.671614
351	C	0.223434	0.257342	0.975821
352	C	0.250524	0.266233	0.673687
353	C	0.258432	0.293758	0.704358
354	C	0.238167	0.310045	0.703631
355	H	0.243658	0.329358	0.72634
356	C	0.268439	0.247025	0.672957
357	C	0.282941	0.242906	0.966122
358	C	0.300431	0.223822	0.964352
359	C	0.303954	0.208499	0.671297
360	C	0.289233	0.212013	0.711937
361	C	0.271297	0.230646	0.712011
362	H	0.28095	0.254399	0.937335
363	H	0.260497	0.232575	0.741467
364	N	0.31294	0.220675	0.923904
365	H	0.309882	0.230997	0.896706
366	H	0.324406	0.207245	0.920377
367	N	0.293166	0.197298	0.752172
368	N	0.28554	0.306161	0.733505
369	H	0.291059	0.325722	0.753061
370	H	0.302279	0.298416	0.732634
371	O	0.309646	0.220018	0.781363
372	O	0.264484	0.175444	0.768326
373	C	0.237488	0.431963	0.974373
374	C	0.254663	0.468498	0.975858
375	C	0.245752	0.486691	0.673704
376	C	0.264949	0.023813	0.672967
377	C	0.269057	0.042431	0.966135
378	C	0.288146	0.079005	0.964358
379	C	0.303487	0.097854	0.671297
380	C	0.299987	0.079621	0.711934
381	C	0.28135	0.043053	0.712014
382	H	0.257562	0.028944	0.937348
383	H	0.27944	0.030324	0.741464
384	H	0.27419	0.482014	0.9533
385	N	0.291286	0.094658	0.923911
386	H	0.280921	0.081278	0.896726
387	H	0.304687	0.119556	0.920387
388	N	0.314724	0.098271	0.752162
389	N	0.245854	0.414979	0.940626
390	O	0.292016	0.092038	0.781373
391	O	0.276937	0.422613	0.942921
392	O	0.336581	0.091441	0.768296
393	O	0.24004	0.422159	0.901888
394	C	0.488173	0.243547	0.672943
395	C	0.469553	0.229046	0.966112
396	C	0.432979	0.211556	0.964345
397	C	0.414132	0.208033	0.671291
398	C	0.432369	0.222754	0.711927
399	C	0.468937	0.240689	0.712001
400	H	0.483035	0.231035	0.937325
401	H	0.481669	0.251489	0.741457
402	N	0.417321	0.199047	0.923897
403	H	0.4307	0.202104	0.896699
404	H	0.392425	0.187581	0.92037
405	N	0.413722	0.218821	0.752166
406	H	0.505725	0.209706	0.73262
407	O	0.419962	0.20234	0.781356
408	O	0.42055	0.247503	0.768319
409	H	0.236405	0.869408	0.006796
410	C	0.377241	0.689718	0.005004
411	C	0.358574	0.653203	0.005099
412	C	0.322063	0.634745	0.005005
413	C	0.304218	0.653413	0.005114
414	C	0.322269	0.689922	0.005009
415	C	0.358781	0.707768	0.005111
416	H	0.277763	0.64026	0.004957
417	H	0.372084	0.734222	0.004953
418	H	0.371725	0.639902	0.004948
419	C	0.223434	0.757342	0.309155
420	C	0.250522	0.76623	0.007022
421	C	0.258432	0.793758	0.037692
422	C	0.238166	0.810043	0.036965
423	H	0.243658	0.829358	0.059673
424	C	0.268439	0.747026	0.006288
425	C	0.282941	0.742907	0.299455
426	C	0.30043	0.723821	0.297686
427	C	0.303954	0.708499	0.004631
428	C	0.289233	0.712014	0.045269
429	C	0.271297	0.730645	0.045343
430	H	0.28095	0.7544	0.270667
431	H	0.260497	0.732576	0.074801
432	N	0.31294	0.720675	0.257238
433	H	0.309882	0.730996	0.230039
434	H	0.324406	0.707244	0.253712
435	N	0.293165	0.697298	0.085505
436	N	0.28554	0.806161	0.06684
437	H	0.291058	0.825722	0.086393
438	H	0.302279	0.798416	0.065967
439	O	0.309646	0.720017	0.114698
440	O	0.264483	0.675443	0.10166
441	C	0.237489	0.931964	0.307708
442	C	0.254663	0.968498	0.309191
443	C	0.245751	0.986691	0.007038
444	C	0.264949	0.523814	0.006302
445	C	0.269057	0.54243	0.299468
446	C	0.288144	0.579003	0.297693
447	C	0.303486	0.597854	0.004631
448	C	0.299987	0.57962	0.045266
449	C	0.28135	0.543054	0.045346
450	H	0.257561	0.528945	0.270684
451	H	0.27944	0.530323	0.074798
452	H	0.274189	0.982012	0.286635
453	N	0.291285	0.594656	0.257244
454	H	0.28092	0.581277	0.230059
455	H	0.304685	0.619554	0.253719
456	N	0.314723	0.598272	0.085495
457	N	0.245854	0.914979	0.273959
458	O	0.292015	0.592037	0.114706
459	O	0.276936	0.92261	0.276253
460	O	0.33658	0.591441	0.101628
461	O	0.24004	0.922159	0.235222
462	C	0.488174	0.743547	0.006278
463	C	0.469552	0.729045	0.299445
464	C	0.432977	0.711554	0.297678
465	C	0.414132	0.708034	0.004624
466	C	0.432368	0.722753	0.045261
467	C	0.468936	0.740687	0.045334
468	H	0.483034	0.731035	0.270657
469	H	0.481667	0.751488	0.074791
470	N	0.417321	0.699048	0.25723
471	H	0.430699	0.702103	0.230031
472	H	0.392424	0.687581	0.253705
473	N	0.413721	0.71882	0.085498
474	H	0.505725	0.709707	0.065955
475	O	0.419962	0.702341	0.11469
476	O	0.420551	0.747503	0.101654
477	H	0.236405	0.869408	0.340128
478	C	0.377241	0.689718	0.338338
479	C	0.358574	0.653203	0.338432
480	C	0.322063	0.634745	0.338338
481	C	0.304218	0.653413	0.338445
482	C	0.322269	0.689922	0.338344
483	C	0.358781	0.707768	0.338445
484	H	0.277763	0.64026	0.338291
485	H	0.372084	0.734222	0.338287
486	H	0.371725	0.639902	0.33828
487	C	0.223434	0.757342	0.642487
488	C	0.250522	0.76623	0.340353
489	C	0.258432	0.793758	0.371025
490	C	0.238166	0.810043	0.370298
491	H	0.243658	0.829358	0.393007
492	C	0.268439	0.747026	0.339623
493	C	0.282941	0.742907	0.632788
494	C	0.30043	0.723821	0.631018
495	C	0.303954	0.708499	0.337964
496	C	0.289233	0.712014	0.378603
497	C	0.271297	0.730645	0.378678
498	H	0.28095	0.7544	0.604001
499	H	0.260497	0.732576	0.408134
500	N	0.31294	0.720675	0.590571
501	H	0.309882	0.730996	0.563372
502	H	0.324406	0.707244	0.587044
503	N	0.293165	0.697298	0.418839
504	N	0.28554	0.806161	0.400172
505	H	0.291058	0.825722	0.419728
506	H	0.302279	0.798416	0.3993
507	O	0.309646	0.720017	0.44803
508	O	0.264483	0.675443	0.434993
509	C	0.237489	0.931964	0.64104
510	C	0.254663	0.968498	0.642524
511	C	0.245751	0.986691	0.34037
512	C	0.264949	0.523814	0.339633
513	C	0.269057	0.54243	0.632802
514	C	0.288144	0.579003	0.631025
515	C	0.303486	0.597854	0.337964
516	C	0.299987	0.57962	0.3786
517	C	0.28135	0.543054	0.378681
518	H	0.257561	0.528945	0.604018
519	H	0.27944	0.530323	0.408131
520	H	0.274189	0.982012	0.619966
521	N	0.291285	0.594656	0.590577
522	H	0.28092	0.581277	0.563392
523	H	0.304685	0.619554	0.587054
524	N	0.314723	0.598272	0.418829
525	N	0.245854	0.914979	0.607293
526	O	0.292015	0.592037	0.44804
527	O	0.276936	0.92261	0.609588
528	O	0.33658	0.591441	0.434962
529	O	0.24004	0.922159	0.568555
530	C	0.488174	0.743547	0.33961
531	C	0.469552	0.729045	0.632778
532	C	0.432977	0.711554	0.631011
533	C	0.414132	0.708034	0.337957
534	C	0.432368	0.722753	0.378593
535	C	0.468936	0.740687	0.378667
536	H	0.483034	0.731035	0.603991
537	H	0.481667	0.751488	0.408124
538	N	0.417321	0.699048	0.590564
539	H	0.430699	0.702103	0.563365
540	H	0.392424	0.687581	0.587037
541	N	0.413721	0.71882	0.418832
542	H	0.505725	0.709707	0.399287
543	O	0.419962	0.702341	0.448023
544	O	0.420551	0.747503	0.434986
545	H	0.236405	0.869408	0.673461
546	C	0.377241	0.689718	0.671671
547	C	0.358574	0.653203	0.671765
548	C	0.322063	0.634745	0.671671
549	C	0.304218	0.653413	0.671779
550	C	0.322269	0.689922	0.671674
551	C	0.358781	0.707768	0.671779
552	H	0.277763	0.64026	0.671624
553	H	0.372084	0.734222	0.671621
554	H	0.371725	0.639902	0.671614
555	C	0.223434	0.757342	0.975821
556	C	0.250522	0.76623	0.673687
557	C	0.258432	0.793758	0.704358
558	C	0.238166	0.810043	0.703631
559	H	0.243658	0.829358	0.72634
560	C	0.268439	0.747026	0.672957
561	C	0.282941	0.742907	0.966122
562	C	0.30043	0.723821	0.964352
563	C	0.303954	0.708499	0.671297
564	C	0.289233	0.712014	0.711937
565	C	0.271297	0.730645	0.712011
566	H	0.28095	0.7544	0.937335
567	H	0.260497	0.732576	0.741467
568	N	0.31294	0.720675	0.923904
569	H	0.309882	0.730996	0.896706
570	H	0.324406	0.707244	0.920377
571	N	0.293165	0.697298	0.752172
572	N	0.28554	0.806161	0.733505
573	H	0.291058	0.825722	0.753061
574	H	0.302279	0.798416	0.732634
575	O	0.309646	0.720017	0.781363
576	O	0.264483	0.675443	0.768326
577	C	0.237489	0.931964	0.974373
578	C	0.254663	0.968498	0.975858
579	C	0.245751	0.986691	0.673704
580	C	0.264949	0.523814	0.672967
581	C	0.269057	0.54243	0.966135
582	C	0.288144	0.579003	0.964358
583	C	0.303486	0.597854	0.671297
584	C	0.299987	0.57962	0.711934
585	C	0.28135	0.543054	0.712014
586	H	0.257561	0.528945	0.937348
587	H	0.27944	0.530323	0.741464
588	H	0.274189	0.982012	0.9533
589	N	0.291285	0.594656	0.923911
590	H	0.28092	0.581277	0.896726
591	H	0.304685	0.619554	0.920387
592	N	0.314723	0.598272	0.752162
593	N	0.245854	0.914979	0.940626
594	O	0.292015	0.592037	0.781373
595	O	0.276936	0.92261	0.942921
596	O	0.33658	0.591441	0.768296
597	O	0.24004	0.922159	0.901888
598	C	0.488174	0.743547	0.672943
599	C	0.469552	0.729045	0.966112
600	C	0.432977	0.711554	0.964345
601	C	0.414132	0.708034	0.671291
602	C	0.432368	0.722753	0.711927
603	C	0.468936	0.740687	0.712001
604	H	0.483034	0.731035	0.937325
605	H	0.481667	0.751488	0.741457
606	N	0.417321	0.699048	0.923897
607	H	0.430699	0.702103	0.896699
608	H	0.392424	0.687581	0.92037
609	N	0.413721	0.71882	0.752166
610	H	0.505725	0.709707	0.73262
611	O	0.419962	0.702341	0.781356
612	O	0.420551	0.747503	0.768319
613	C	0.636859	0.319626	0.006058
614	C	0.655785	0.356186	0.006347
615	C	0.692354	0.375127	0.006068
616	C	0.709988	0.356202	0.006365
617	C	0.692361	0.319633	0.006069
618	C	0.6558	0.301996	0.006353
619	H	0.736406	0.369411	0.006796
620	H	0.642592	0.27558	0.006773
621	H	0.642574	0.369393	0.006763
622	C	0.87724	0.189717	0.005004
623	C	0.858575	0.153205	0.005099
624	C	0.822064	0.134746	0.005005
625	C	0.804218	0.153412	0.005114
626	C	0.82227	0.189923	0.005009
627	C	0.858781	0.20777	0.005111
628	H	0.777764	0.140262	0.004957
629	H	0.872084	0.234223	0.004953
630	H	0.871724	0.139902	0.004948
631	C	0.711058	0.301154	0.339115
632	C	0.70408	0.274522	0.307674
633	C	0.723433	0.257342	0.309155
634	C	0.750522	0.266233	0.007022
635	C	0.758431	0.293758	0.037692
636	C	0.738167	0.310045	0.036965
637	H	0.743657	0.329358	0.059673
638	C	0.76844	0.247025	0.006288
639	C	0.78294	0.242906	0.299455
640	C	0.800431	0.223822	0.297686
641	C	0.803954	0.208499	0.004631
642	C	0.789232	0.212013	0.045269
643	C	0.771298	0.230646	0.045343
644	H	0.780951	0.254399	0.270667
645	H	0.760497	0.232575	0.074801
646	H	0.71743	0.237826	0.286584
647	N	0.812939	0.220675	0.257238
648	H	0.809881	0.230997	0.230039
649	H	0.824407	0.207245	0.253712
650	N	0.793166	0.197298	0.085505
651	N	0.678743	0.266176	0.273909
652	N	0.78554	0.306161	0.06684
653	H	0.791058	0.325722	0.086393
654	H	0.80228	0.298416	0.065967
655	O	0.809647	0.220018	0.114698
656	O	0.655292	0.235093	0.276173
657	O	0.764483	0.175444	0.10166
658	O	0.691755	0.272009	0.235182
659	C	0.710834	0.412302	0.339125
660	C	0.737488	0.431963	0.307708
661	C	0.754663	0.468498	0.309191
662	C	0.745751	0.486691	0.007038
663	C	0.718214	0.467071	0.037687
664	C	0.701914	0.430518	0.036939
665	H	0.68258	0.416695	0.059622
666	C	0.764948	0.023813	0.006302
667	C	0.769058	0.042431	0.299468
668	C	0.788145	0.079005	0.297693
669	C	0.803486	0.097854	0.004631
670	C	0.799989	0.079621	0.045266
671	C	0.781349	0.043053	0.045346
672	H	0.75756	0.028944	0.270684
673	H	0.779439	0.030324	0.074798
674	H	0.77419	0.482014	0.286635
675	N	0.791287	0.094658	0.257244
676	H	0.78092	0.081278	0.230059
677	H	0.804686	0.119556	0.253719
678	N	0.814723	0.098271	0.085495
679	N	0.745853	0.414979	0.273959
680	N	0.705755	0.481759	0.066771
681	H	0.686338	0.467747	0.08655
682	H	0.713665	0.006285	0.066192
683	O	0.792015	0.092038	0.114706
684	O	0.776936	0.422613	0.276253
685	O	0.83658	0.091441	0.101628
686	O	0.74004	0.422159	0.235222
687	C	0.599685	0.300927	0.339105
688	C	0.58003	0.307906	0.307662
689	C	0.543496	0.288552	0.309143
690	C	0.525298	0.261463	0.00701
691	C	0.544913	0.253553	0.03768
692	C	0.581466	0.273818	0.036952
693	H	0.595289	0.268326	0.05966
694	C	0.988174	0.243547	0.006278
695	C	0.969552	0.229046	0.299445
696	C	0.932977	0.211556	0.297678
697	C	0.914131	0.208033	0.004624
698	C	0.93237	0.222754	0.045261
699	C	0.968936	0.240689	0.045334
700	H	0.983034	0.231035	0.270657
701	H	0.981667	0.251489	0.074791
702	H	0.529985	0.294555	0.286571
703	N	0.91732	0.199047	0.25723
704	H	0.930699	0.202104	0.230031
705	H	0.892423	0.187581	0.253705
706	N	0.913723	0.218821	0.085498
707	N	0.597021	0.333242	0.273897
708	N	0.530209	0.226445	0.066827
709	H	0.544251	0.220926	0.086381
710	H	0.005726	0.209706	0.065955
711	O	0.919961	0.20234	0.11469
712	O	0.589388	0.356692	0.276161
713	O	0.920551	0.247503	0.101654
714	O	0.589842	0.32023	0.23517
715	C	0.636859	0.319626	0.339391
716	C	0.655785	0.356186	0.33968
717	C	0.692354	0.375127	0.339401
718	C	0.709988	0.356202	0.339697
719	C	0.692361	0.319633	0.339401
720	C	0.6558	0.301996	0.339687
721	H	0.736406	0.369411	0.340128
722	H	0.642592	0.27558	0.340104
723	H	0.642574	0.369393	0.340094
724	C	0.87724	0.189717	0.338338
725	C	0.858575	0.153205	0.338432
726	C	0.822064	0.134746	0.338338
727	C	0.804218	0.153412	0.338445
728	C	0.82227	0.189923	0.338344
729	C	0.858781	0.20777	0.338445
730	H	0.777764	0.140262	0.338291
731	H	0.872084	0.234223	0.338287
732	H	0.871724	0.139902	0.33828
733	C	0.711058	0.301154	0.672448
734	C	0.70408	0.274522	0.641006
735	C	0.723433	0.257342	0.642487
736	C	0.750522	0.266233	0.340353
737	C	0.758431	0.293758	0.371025
738	C	0.738167	0.310045	0.370298
739	H	0.743657	0.329358	0.393007
740	C	0.76844	0.247025	0.339623
741	C	0.78294	0.242906	0.632788
742	C	0.800431	0.223822	0.631018
743	C	0.803954	0.208499	0.337964
744	C	0.789232	0.212013	0.378603
745	C	0.771298	0.230646	0.378678
746	H	0.780951	0.254399	0.604001
747	H	0.760497	0.232575	0.408134
748	H	0.71743	0.237826	0.619916
749	N	0.812939	0.220675	0.590571
750	H	0.809881	0.230997	0.563372
751	H	0.824407	0.207245	0.587044
752	N	0.793166	0.197298	0.418839
753	N	0.678743	0.266176	0.607242
754	N	0.78554	0.306161	0.400172
755	H	0.791058	0.325722	0.419728
756	H	0.80228	0.298416	0.3993
757	O	0.809647	0.220018	0.44803
758	O	0.655292	0.235093	0.609507
759	O	0.764483	0.175444	0.434993
760	O	0.691755	0.272009	0.568514
761	C	0.710834	0.412302	0.672459
762	C	0.737488	0.431963	0.64104
763	C	0.754663	0.468498	0.642524
764	C	0.745751	0.486691	0.34037
765	C	0.718214	0.467071	0.371021
766	C	0.701914	0.430518	0.370271
767	H	0.68258	0.416695	0.392957
768	C	0.764948	0.023813	0.339633
769	C	0.769058	0.042431	0.632802
770	C	0.788145	0.079005	0.631025
771	C	0.803486	0.097854	0.337964
772	C	0.799989	0.079621	0.3786
773	C	0.781349	0.043053	0.378681
774	H	0.75756	0.028944	0.604018
775	H	0.779439	0.030324	0.408131
776	H	0.77419	0.482014	0.619966
777	N	0.791287	0.094658	0.590577
778	H	0.78092	0.081278	0.563392
779	H	0.804686	0.119556	0.587054
780	N	0.814723	0.098271	0.418829
781	N	0.745853	0.414979	0.607293
782	N	0.705755	0.481759	0.400104
783	H	0.686338	0.467747	0.419882
784	H	0.713665	0.006285	0.399526
785	O	0.792015	0.092038	0.44804
786	O	0.776936	0.422613	0.609588
787	O	0.83658	0.091441	0.434962
788	O	0.74004	0.422159	0.568555
789	C	0.599685	0.300927	0.672438
790	C	0.58003	0.307906	0.640996
791	C	0.543496	0.288552	0.642477
792	C	0.525298	0.261463	0.340343
793	C	0.544913	0.253553	0.371011
794	C	0.581466	0.273818	0.370284
795	H	0.595289	0.268326	0.392994
796	C	0.988174	0.243547	0.33961
797	C	0.969552	0.229046	0.632778
798	C	0.932977	0.211556	0.631011
799	C	0.914131	0.208033	0.337957
800	C	0.93237	0.222754	0.378593
801	C	0.968936	0.240689	0.378667
802	H	0.983034	0.231035	0.603991
803	H	0.981667	0.251489	0.408124
804	H	0.529985	0.294555	0.619906
805	N	0.91732	0.199047	0.590564
806	H	0.930699	0.202104	0.563365
807	H	0.892423	0.187581	0.587037
808	N	0.913723	0.218821	0.418832
809	N	0.597021	0.333242	0.607232
810	N	0.530209	0.226445	0.400162
811	H	0.544251	0.220926	0.419714
812	H	0.005726	0.209706	0.399287
813	O	0.919961	0.20234	0.448023
814	O	0.589388	0.356692	0.609494
815	O	0.920551	0.247503	0.434986
816	O	0.589842	0.32023	0.568504
817	C	0.636859	0.319626	0.672724
818	C	0.655785	0.356186	0.673014
819	C	0.692354	0.375127	0.672734
820	C	0.709988	0.356202	0.673031
821	C	0.692361	0.319633	0.672734
822	C	0.6558	0.301996	0.673021
823	H	0.736406	0.369411	0.673461
824	H	0.642592	0.27558	0.673438
825	H	0.642574	0.369393	0.673428
826	C	0.87724	0.189717	0.671671
827	C	0.858575	0.153205	0.671765
828	C	0.822064	0.134746	0.671671
829	C	0.804218	0.153412	0.671779
830	C	0.82227	0.189923	0.671674
831	C	0.858781	0.20777	0.671779
832	H	0.777764	0.140262	0.671624
833	H	0.872084	0.234223	0.671621
834	H	0.871724	0.139902	0.671614
835	C	0.711058	0.301154	0.005783
836	C	0.70408	0.274522	0.97434
837	C	0.723433	0.257342	0.975821
838	C	0.750522	0.266233	0.673687
839	C	0.758431	0.293758	0.704358
840	C	0.738167	0.310045	0.703631
841	H	0.743657	0.329358	0.72634
842	C	0.76844	0.247025	0.672957
843	C	0.78294	0.242906	0.966122
844	C	0.800431	0.223822	0.964352
845	C	0.803954	0.208499	0.671297
846	C	0.789232	0.212013	0.711937
847	C	0.771298	0.230646	0.712011
848	H	0.780951	0.254399	0.937335
849	H	0.760497	0.232575	0.741467
850	H	0.71743	0.237826	0.953249
851	N	0.812939	0.220675	0.923904
852	H	0.809881	0.230997	0.896706
853	H	0.824407	0.207245	0.920377
854	N	0.793166	0.197298	0.752172
855	N	0.678743	0.266176	0.940576
856	N	0.78554	0.306161	0.733505
857	H	0.791058	0.325722	0.753061
858	H	0.80228	0.298416	0.732634
859	O	0.809647	0.220018	0.781363
860	O	0.655292	0.235093	0.942841
861	O	0.764483	0.175444	0.768326
862	O	0.691755	0.272009	0.901848
863	C	0.710834	0.412302	0.005791
864	C	0.737488	0.431963	0.974373
865	C	0.754663	0.468498	0.975858
866	C	0.745751	0.486691	0.673704
867	C	0.718214	0.467071	0.704355
868	C	0.701914	0.430518	0.703604
869	H	0.68258	0.416695	0.72629
870	C	0.764948	0.023813	0.672967
871	C	0.769058	0.042431	0.966135
872	C	0.788145	0.079005	0.964358
873	C	0.803486	0.097854	0.671297
874	C	0.799989	0.079621	0.711934
875	C	0.781349	0.043053	0.712014
876	H	0.75756	0.028944	0.937348
877	H	0.779439	0.030324	0.741464
878	H	0.77419	0.482014	0.9533
879	N	0.791287	0.094658	0.923911
880	H	0.78092	0.081278	0.896726
881	H	0.804686	0.119556	0.920387
882	N	0.814723	0.098271	0.752162
883	N	0.745853	0.414979	0.940626
884	N	0.705755	0.481759	0.733438
885	H	0.686338	0.467747	0.753216
886	H	0.713665	0.006285	0.732859
887	O	0.792015	0.092038	0.781373
888	O	0.776936	0.422613	0.942921
889	O	0.83658	0.091441	0.768296
890	O	0.74004	0.422159	0.901888
891	C	0.599685	0.300927	0.005772
892	C	0.58003	0.307906	0.97433
893	C	0.543496	0.288552	0.97581
894	C	0.525298	0.261463	0.673677
895	C	0.544913	0.253553	0.704345
896	C	0.581466	0.273818	0.703618
897	H	0.595289	0.268326	0.726327
898	C	0.988174	0.243547	0.672943
899	C	0.969552	0.229046	0.966112
900	C	0.932977	0.211556	0.964345
901	C	0.914131	0.208033	0.671291
902	C	0.93237	0.222754	0.711927
903	C	0.968936	0.240689	0.712001
904	H	0.983034	0.231035	0.937325
905	H	0.981667	0.251489	0.741457
906	H	0.529985	0.294555	0.953239
907	N	0.91732	0.199047	0.923897
908	H	0.930699	0.202104	0.896699
909	H	0.892423	0.187581	0.92037
910	N	0.913723	0.218821	0.752166
911	N	0.597021	0.333242	0.940562
912	N	0.530209	0.226445	0.733495
913	H	0.544251	0.220926	0.753047
914	H	0.005726	0.209706	0.73262
915	O	0.919961	0.20234	0.781356
916	O	0.589388	0.356692	0.942827
917	O	0.920551	0.247503	0.768319
918	O	0.589842	0.32023	0.901838
919	C	0.636859	0.819623	0.006058
920	C	0.655783	0.856184	0.006347
921	C	0.692353	0.875128	0.006068
922	C	0.709989	0.856202	0.006365
923	C	0.69236	0.819631	0.006069
924	C	0.655801	0.801996	0.006353
925	H	0.736404	0.869408	0.006796
926	H	0.642592	0.775578	0.006773
927	H	0.642574	0.869393	0.006763
928	C	0.877241	0.689718	0.005004
929	C	0.858573	0.653203	0.005099
930	C	0.822062	0.634745	0.005005
931	C	0.804217	0.653413	0.005114
932	C	0.822268	0.689922	0.005009
933	C	0.858782	0.707768	0.005111
934	H	0.777762	0.64026	0.004957
935	H	0.872085	0.734222	0.004953
936	H	0.871725	0.639902	0.004948
937	C	0.711057	0.801155	0.339115
938	C	0.704079	0.774523	0.307674
939	C	0.723434	0.757342	0.309155
940	C	0.750522	0.76623	0.007022
941	C	0.75843	0.793758	0.037692
942	C	0.738165	0.810043	0.036965
943	H	0.743658	0.829358	0.059673
944	C	0.768439	0.747026	0.006288
945	C	0.782939	0.742907	0.299455
946	C	0.80043	0.723821	0.297686
947	C	0.803953	0.708499	0.004631
948	C	0.789231	0.712014	0.045269
949	C	0.771297	0.730645	0.045343
950	H	0.78095	0.7544	0.270667
951	H	0.760496	0.732576	0.074801
952	H	0.717429	0.737825	0.286584
953	N	0.81294	0.720675	0.257238
954	H	0.809882	0.730996	0.230039
955	H	0.824405	0.707244	0.253712
956	N	0.793165	0.697298	0.085505
957	N	0.678744	0.766176	0.273909
958	N	0.785539	0.806161	0.06684
959	H	0.791057	0.825722	0.086393
960	H	0.802279	0.798416	0.065967
961	O	0.809645	0.720017	0.114698
962	O	0.65529	0.735092	0.276173
963	O	0.764482	0.675443	0.10166
964	O	0.691755	0.772006	0.235182
965	C	0.710836	0.912302	0.339125
966	C	0.737487	0.931964	0.307708
967	C	0.754662	0.968498	0.309191
968	C	0.745752	0.986691	0.007038
969	C	0.718213	0.967071	0.037687
970	C	0.701913	0.930518	0.036939
971	H	0.68258	0.916693	0.059622
972	C	0.764949	0.523814	0.006302
973	C	0.769056	0.54243	0.299468
974	C	0.788143	0.579003	0.297693
975	C	0.803485	0.597854	0.004631
976	C	0.799987	0.57962	0.045266
977	C	0.781349	0.543054	0.045346
978	H	0.75756	0.528945	0.270684
979	H	0.77944	0.530323	0.074798
980	H	0.774188	0.982012	0.286635
981	N	0.791285	0.594656	0.257244
982	H	0.780921	0.581277	0.230059
983	H	0.804686	0.619554	0.253719
984	N	0.814722	0.598272	0.085495
985	N	0.745854	0.914979	0.273959
986	N	0.705754	0.981759	0.066771
987	H	0.686338	0.967747	0.08655
988	H	0.713664	0.506285	0.066192
989	O	0.792016	0.592037	0.114706
990	O	0.776934	0.92261	0.276253
991	O	0.836581	0.591441	0.101628
992	O	0.740039	0.922159	0.235222
993	C	0.599684	0.800927	0.339105
994	C	0.58003	0.807906	0.307662
995	C	0.543495	0.78855	0.309143
996	C	0.525296	0.761461	0.00701
997	C	0.544913	0.753553	0.03768
998	C	0.581465	0.773818	0.036952
999	H	0.595288	0.768326	0.05966
1000	C	0.988173	0.743547	0.006278
1001	C	0.969552	0.729045	0.299445
1002	C	0.932976	0.711554	0.297678
1003	C	0.914133	0.708034	0.004624
1004	C	0.932368	0.722753	0.045261
1005	C	0.968937	0.740687	0.045334
1006	H	0.983035	0.731035	0.270657
1007	H	0.981666	0.751488	0.074791
1008	H	0.529984	0.794555	0.286571
1009	N	0.917321	0.699048	0.25723
1010	H	0.930698	0.702103	0.230031
1011	H	0.892424	0.687581	0.253705
1012	N	0.913721	0.71882	0.085498
1013	N	0.597019	0.83324	0.273897
1014	N	0.530209	0.726443	0.066827
1015	H	0.544252	0.720926	0.086381
1016	H	0.005725	0.709707	0.065955
1017	O	0.919963	0.702341	0.11469
1018	O	0.589388	0.856692	0.276161
1019	O	0.920551	0.747503	0.101654
1020	O	0.589841	0.82023	0.23517
1021	C	0.636859	0.819623	0.339391
1022	C	0.655783	0.856184	0.33968
1023	C	0.692353	0.875128	0.339401
1024	C	0.709989	0.856202	0.339697
1025	C	0.69236	0.819631	0.339401
1026	C	0.655801	0.801996	0.339687
1027	H	0.736404	0.869408	0.340128
1028	H	0.642592	0.775578	0.340104
1029	H	0.642574	0.869393	0.340094
1030	C	0.877241	0.689718	0.338338
1031	C	0.858573	0.653203	0.338432
1032	C	0.822062	0.634745	0.338338
1033	C	0.804217	0.653413	0.338445
1034	C	0.822268	0.689922	0.338344
1035	C	0.858782	0.707768	0.338445
1036	H	0.777762	0.64026	0.338291
1037	H	0.872085	0.734222	0.338287
1038	H	0.871725	0.639902	0.33828
1039	C	0.711057	0.801155	0.672448
1040	C	0.704079	0.774523	0.641006
1041	C	0.723434	0.757342	0.642487
1042	C	0.750522	0.76623	0.340353
1043	C	0.75843	0.793758	0.371025
1044	C	0.738165	0.810043	0.370298
1045	H	0.743658	0.829358	0.393007
1046	C	0.768439	0.747026	0.339623
1047	C	0.782939	0.742907	0.632788
1048	C	0.80043	0.723821	0.631018
1049	C	0.803953	0.708499	0.337964
1050	C	0.789231	0.712014	0.378603
1051	C	0.771297	0.730645	0.378678
1052	H	0.78095	0.7544	0.604001
1053	H	0.760496	0.732576	0.408134
1054	H	0.717429	0.737825	0.619916
1055	N	0.81294	0.720675	0.590571
1056	H	0.809882	0.730996	0.563372
1057	H	0.824405	0.707244	0.587044
1058	N	0.793165	0.697298	0.418839
1059	N	0.678744	0.766176	0.607242
1060	N	0.785539	0.806161	0.400172
1061	H	0.791057	0.825722	0.419728
1062	H	0.802279	0.798416	0.3993
1063	O	0.809645	0.720017	0.44803
1064	O	0.65529	0.735092	0.609507
1065	O	0.764482	0.675443	0.434993
1066	O	0.691755	0.772006	0.568514
1067	C	0.710836	0.912302	0.672459
1068	C	0.737487	0.931964	0.64104
1069	C	0.754662	0.968498	0.642524
1070	C	0.745752	0.986691	0.34037
1071	C	0.718213	0.967071	0.371021
1072	C	0.701913	0.930518	0.370271
1073	H	0.68258	0.916693	0.392957
1074	C	0.764949	0.523814	0.339633
1075	C	0.769056	0.54243	0.632802
1076	C	0.788143	0.579003	0.631025
1077	C	0.803485	0.597854	0.337964
1078	C	0.799987	0.57962	0.3786
1079	C	0.781349	0.543054	0.378681
1080	H	0.75756	0.528945	0.604018
1081	H	0.77944	0.530323	0.408131
1082	H	0.774188	0.982012	0.619966
1083	N	0.791285	0.594656	0.590577
1084	H	0.780921	0.581277	0.563392
1085	H	0.804686	0.619554	0.587054
1086	N	0.814722	0.598272	0.418829
1087	N	0.745854	0.914979	0.607293
1088	N	0.705754	0.981759	0.400104
1089	H	0.686338	0.967747	0.419882
1090	H	0.713664	0.506285	0.399526
1091	O	0.792016	0.592037	0.44804
1092	O	0.776934	0.92261	0.609588
1093	O	0.836581	0.591441	0.434962
1094	O	0.740039	0.922159	0.568555
1095	C	0.599684	0.800927	0.672438
1096	C	0.58003	0.807906	0.640996
1097	C	0.543495	0.78855	0.642477
1098	C	0.525296	0.761461	0.340343
1099	C	0.544913	0.753553	0.371011
1100	C	0.581465	0.773818	0.370284
1101	H	0.595288	0.768326	0.392994
1102	C	0.988173	0.743547	0.33961
1103	C	0.969552	0.729045	0.632778
1104	C	0.932976	0.711554	0.631011
1105	C	0.914133	0.708034	0.337957
1106	C	0.932368	0.722753	0.378593
1107	C	0.968937	0.740687	0.378667
1108	H	0.983035	0.731035	0.603991
1109	H	0.981666	0.751488	0.408124
1110	H	0.529984	0.794555	0.619906
1111	N	0.917321	0.699048	0.590564
1112	H	0.930698	0.702103	0.563365
1113	H	0.892424	0.687581	0.587037
1114	N	0.913721	0.71882	0.418832
1115	N	0.597019	0.83324	0.607232
1116	N	0.530209	0.726443	0.400162
1117	H	0.544252	0.720926	0.419714
1118	H	0.005725	0.709707	0.399287
1119	O	0.919963	0.702341	0.448023
1120	O	0.589388	0.856692	0.609494
1121	O	0.920551	0.747503	0.434986
1122	O	0.589841	0.82023	0.568504
1123	C	0.636859	0.819623	0.672724
1124	C	0.655783	0.856184	0.673014
1125	C	0.692353	0.875128	0.672734
1126	C	0.709989	0.856202	0.673031
1127	C	0.69236	0.819631	0.672734
1128	C	0.655801	0.801996	0.673021
1129	H	0.736404	0.869408	0.673461
1130	H	0.642592	0.775578	0.673438
1131	H	0.642574	0.869393	0.673428
1132	C	0.877241	0.689718	0.671671
1133	C	0.858573	0.653203	0.671765
1134	C	0.822062	0.634745	0.671671
1135	C	0.804217	0.653413	0.671779
1136	C	0.822268	0.689922	0.671674
1137	C	0.858782	0.707768	0.671779
1138	H	0.777762	0.64026	0.671624
1139	H	0.872085	0.734222	0.671621
1140	H	0.871725	0.639902	0.671614
1141	C	0.711057	0.801155	0.005783
1142	C	0.704079	0.774523	0.97434
1143	C	0.723434	0.757342	0.975821
1144	C	0.750522	0.76623	0.673687
1145	C	0.75843	0.793758	0.704358
1146	C	0.738165	0.810043	0.703631
1147	H	0.743658	0.829358	0.72634
1148	C	0.768439	0.747026	0.672957
1149	C	0.782939	0.742907	0.966122
1150	C	0.80043	0.723821	0.964352
1151	C	0.803953	0.708499	0.671297
1152	C	0.789231	0.712014	0.711937
1153	C	0.771297	0.730645	0.712011
1154	H	0.78095	0.7544	0.937335
1155	H	0.760496	0.732576	0.741467
1156	H	0.717429	0.737825	0.953249
1157	N	0.81294	0.720675	0.923904
1158	H	0.809882	0.730996	0.896706
1159	H	0.824405	0.707244	0.920377
1160	N	0.793165	0.697298	0.752172
1161	N	0.678744	0.766176	0.940576
1162	N	0.785539	0.806161	0.733505
1163	H	0.791057	0.825722	0.753061
1164	H	0.802279	0.798416	0.732634
1165	O	0.809645	0.720017	0.781363
1166	O	0.65529	0.735092	0.942841
1167	O	0.764482	0.675443	0.768326
1168	O	0.691755	0.772006	0.901848
1169	C	0.710836	0.912302	0.005791
1170	C	0.737487	0.931964	0.974373
1171	C	0.754662	0.968498	0.975858
1172	C	0.745752	0.986691	0.673704
1173	C	0.718213	0.967071	0.704355
1174	C	0.701913	0.930518	0.703604
1175	H	0.68258	0.916693	0.72629
1176	C	0.764949	0.523814	0.672967
1177	C	0.769056	0.54243	0.966135
1178	C	0.788143	0.579003	0.964358
1179	C	0.803485	0.597854	0.671297
1180	C	0.799987	0.57962	0.711934
1181	C	0.781349	0.543054	0.712014
1182	H	0.75756	0.528945	0.937348
1183	H	0.77944	0.530323	0.741464
1184	H	0.774188	0.982012	0.9533
1185	N	0.791285	0.594656	0.923911
1186	H	0.780921	0.581277	0.896726
1187	H	0.804686	0.619554	0.920387
1188	N	0.814722	0.598272	0.752162
1189	N	0.745854	0.914979	0.940626
1190	N	0.705754	0.981759	0.733438
1191	H	0.686338	0.967747	0.753216
1192	H	0.713664	0.506285	0.732859
1193	O	0.792016	0.592037	0.781373
1194	O	0.776934	0.92261	0.942921
1195	O	0.836581	0.591441	0.768296
1196	O	0.740039	0.922159	0.901888
1197	C	0.599684	0.800927	0.005772
1198	C	0.58003	0.807906	0.97433
1199	C	0.543495	0.78855	0.97581
1200	C	0.525296	0.761461	0.673677
1201	C	0.544913	0.753553	0.704345
1202	C	0.581465	0.773818	0.703618
1203	H	0.595288	0.768326	0.726327
1204	C	0.988173	0.743547	0.672943
1205	C	0.969552	0.729045	0.966112
1206	C	0.932976	0.711554	0.964345
1207	C	0.914133	0.708034	0.671291
1208	C	0.932368	0.722753	0.711927
1209	C	0.968937	0.740687	0.712001
1210	H	0.983035	0.731035	0.937325
1211	H	0.981666	0.751488	0.741457
1212	H	0.529984	0.794555	0.953239
1213	N	0.917321	0.699048	0.923897
1214	H	0.930698	0.702103	0.896699
1215	H	0.892424	0.687581	0.92037
1216	N	0.913721	0.71882	0.752166
1217	N	0.597019	0.83324	0.940562
1218	N	0.530209	0.726443	0.733495
1219	H	0.544252	0.720926	0.753047
1220	H	0.005725	0.709707	0.73262
1221	O	0.919963	0.702341	0.781356
1222	O	0.589388	0.856692	0.942827
1223	O	0.920551	0.747503	0.768319
1224	O	0.589841	0.82023	0.901838
