data_C576H432N72_2018-02-15_10:38:52
#******************************************
#
# CIF file created by Zeo++
# Zeo++ is an open source package to
# analyze microporous materials
#
#*******************************************

_cell_length_a		44.6116   
_cell_length_b		44.6115   
_cell_length_c		29.7974   
_cell_angle_alpha		90   
_cell_angle_beta		90   
_cell_angle_gamma		120   

_symmetry_space_group_name_H-M		'P1'
_symmetry_Int_Tables_number		1
_symmetry_cell_setting		Monoclinic

loop_
_symmetry_equiv_pos_as_xyz
'+x,+y,+z'

loop_
_atom_site_label
_atom_site_type_symbol
_atom_site_fract_x
_atom_site_fract_y
_atom_site_fract_z
1	C	0.042	0.293474	0.311008
2	C	0.023334	0.264234	0.006138
3	C	0.041786	0.253406	0.033951
4	H	0.028828	0.232621	0.054947
5	N	0.025979	0.305539	0.283565
6	H	0.039189	0.325676	0.264495
7	H	0.008714	0.293275	0.073222
8	C	0.042	0.293474	0.644342
9	C	0.023334	0.264234	0.339473
10	C	0.041786	0.253406	0.367284
11	H	0.028828	0.232621	0.388279
12	N	0.025979	0.305539	0.616897
13	H	0.039189	0.325676	0.597828
14	H	0.008714	0.293275	0.406556
15	C	0.042	0.293474	0.977674
16	C	0.023334	0.264234	0.672804
17	C	0.041786	0.253406	0.700616
18	H	0.028828	0.232621	0.721614
19	N	0.025979	0.305539	0.950232
20	H	0.039189	0.325676	0.931159
21	H	0.008714	0.293275	0.739888
22	C	0.042	0.793476	0.311008
23	C	0.023334	0.764235	0.006138
24	C	0.041785	0.753405	0.033951
25	H	0.028829	0.732621	0.054947
26	N	0.02598	0.80554	0.283565
27	H	0.039188	0.825675	0.264495
28	H	0.008714	0.793276	0.073222
29	C	0.042	0.793476	0.644342
30	C	0.023334	0.764235	0.339473
31	C	0.041785	0.753405	0.367284
32	H	0.028829	0.732621	0.388279
33	N	0.02598	0.80554	0.616897
34	H	0.039188	0.825675	0.597828
35	H	0.008714	0.793276	0.406556
36	C	0.042	0.793476	0.977674
37	C	0.023334	0.764235	0.672804
38	C	0.041785	0.753405	0.700616
39	H	0.028829	0.732621	0.721614
40	N	0.02598	0.80554	0.950232
41	H	0.039188	0.825675	0.931159
42	H	0.008714	0.793276	0.739888
43	C	0.097484	0.300261	0.006009
44	C	0.078701	0.310806	0.311456
45	C	0.078177	0.271111	0.033856
46	H	0.090492	0.262849	0.055265
47	H	0.092061	0.331451	0.290395
48	C	0.097484	0.300261	0.339342
49	C	0.078701	0.310806	0.644789
50	C	0.078177	0.271111	0.36719
51	H	0.090492	0.262849	0.388598
52	H	0.092061	0.331451	0.623726
53	C	0.097484	0.300261	0.672674
54	C	0.078701	0.310806	0.978123
55	C	0.078177	0.271111	0.700522
56	H	0.090492	0.262849	0.72193
57	H	0.092061	0.331451	0.957061
58	C	0.097483	0.800262	0.006009
59	C	0.0787	0.810805	0.311456
60	C	0.078179	0.771112	0.033856
61	H	0.090492	0.76285	0.055265
62	H	0.09206	0.831449	0.290395
63	C	0.097483	0.800262	0.339342
64	C	0.0787	0.810805	0.644789
65	C	0.078179	0.771112	0.36719
66	H	0.090492	0.76285	0.388598
67	H	0.09206	0.831449	0.623726
68	C	0.097483	0.800262	0.672674
69	C	0.0787	0.810805	0.978123
70	C	0.078179	0.771112	0.700522
71	H	0.090492	0.76285	0.72193
72	H	0.09206	0.831449	0.957061
73	C	0.134676	0.318519	0.006157
74	C	0.153977	0.355178	0.006185
75	C	0.153324	0.300499	0.006186
76	H	0.139832	0.274007	0.006186
77	H	0.140977	0.368668	0.006186
78	C	0.134676	0.318519	0.33949
79	C	0.153977	0.355178	0.33952
80	C	0.153324	0.300499	0.33952
81	H	0.139832	0.274007	0.33952
82	H	0.140977	0.368668	0.33952
83	C	0.134676	0.318519	0.672821
84	C	0.153977	0.355178	0.672851
85	C	0.153324	0.300499	0.672851
86	H	0.139832	0.274007	0.672851
87	H	0.140977	0.368668	0.672851
88	C	0.134677	0.81852	0.006157
89	C	0.153977	0.855179	0.006185
90	C	0.153326	0.8005	0.006186
91	H	0.139833	0.774009	0.006186
92	H	0.140978	0.86867	0.006186
93	C	0.134677	0.81852	0.33949
94	C	0.153977	0.855179	0.33952
95	C	0.153326	0.8005	0.33952
96	H	0.139833	0.774009	0.33952
97	H	0.140978	0.86867	0.33952
98	C	0.134677	0.81852	0.672821
99	C	0.153977	0.855179	0.672851
100	C	0.153326	0.8005	0.672851
101	H	0.139833	0.774009	0.672851
102	H	0.140978	0.86867	0.672851
103	C	0.190645	0.373827	0.006157
104	C	0.208002	0.354526	0.006186
105	C	0.189983	0.317857	0.006157
106	H	0.234493	0.367524	0.006186
107	C	0.375426	0.188837	0.007549
108	C	0.356855	0.152192	0.007521
109	C	0.320212	0.133076	0.00755
110	C	0.30214	0.151649	0.007517
111	C	0.319665	0.188291	0.007548
112	C	0.356311	0.206363	0.007517
113	H	0.275626	0.138189	0.007623
114	H	0.369363	0.232876	0.007624
115	H	0.370314	0.139138	0.007624
116	C	0.20824	0.298923	0.006009
117	C	0.197698	0.269597	0.311455
118	C	0.215028	0.250227	0.311007
119	C	0.244269	0.260802	0.006138
120	C	0.255096	0.290081	0.033951
121	C	0.23739	0.308766	0.033857
122	H	0.275881	0.297908	0.054948
123	H	0.245653	0.329344	0.055266
124	C	0.262842	0.242524	0.008405
125	C	0.289847	0.251172	0.310581
126	C	0.308647	0.233582	0.310521
127	C	0.300856	0.206533	0.007943
128	C	0.273815	0.19805	0.0391
129	C	0.25467	0.215604	0.0401
130	H	0.295948	0.270304	0.287352
131	H	0.327661	0.240228	0.286986
132	H	0.268189	0.178879	0.062093
133	H	0.177054	0.262313	0.290394
134	N	0.202964	0.222143	0.283562
135	H	0.182829	0.215216	0.264492
136	H	0.213787	0.207921	0.28222
137	N	0.229099	0.205969	0.071181
138	H	0.215223	0.217137	0.073217
139	H	0.223898	0.1875	0.092571
140	C	0.20958	0.411019	0.006009
141	C	0.238906	0.429803	0.311456
142	C	0.258276	0.466503	0.311008
143	C	0.247702	0.48517	0.006139
144	C	0.218421	0.466715	0.033951
145	C	0.199736	0.430325	0.033856
146	H	0.210595	0.479675	0.054948
147	H	0.179159	0.41801	0.055265
148	C	0.265979	0.022019	0.008406
149	C	0.25733	0.040376	0.310581
150	C	0.27492	0.076766	0.310521
151	C	0.301968	0.096024	0.007944
152	C	0.310451	0.077466	0.039101
153	C	0.292898	0.040767	0.040102
154	H	0.2382	0.027346	0.287351
155	H	0.268276	0.089135	0.286986
156	H	0.329622	0.091011	0.062096
157	H	0.24619	0.416442	0.290395
158	N	0.28636	0.482522	0.283564
159	H	0.293287	0.469314	0.264494
160	H	0.300583	0.007566	0.282222
161	N	0.302533	0.024831	0.071184
162	H	0.291364	0.499786	0.073219
163	H	0.321	0.038099	0.092574
164	C	0.486482	0.24566	0.008405
165	C	0.468126	0.218658	0.310579
166	C	0.431737	0.199857	0.310519
167	C	0.412478	0.207646	0.007944
168	C	0.431035	0.234686	0.039102
169	C	0.467735	0.253831	0.040103
170	H	0.481156	0.212557	0.287349
171	H	0.419368	0.180844	0.286983
172	H	0.41749	0.24031	0.062098
173	H	0.500935	0.294717	0.282223
174	N	0.483671	0.279399	0.071187
175	H	0.470402	0.284599	0.092578
176	C	0.190645	0.373827	0.33949
177	C	0.208002	0.354526	0.33952
178	C	0.189983	0.317857	0.33949
179	H	0.234493	0.367524	0.33952
180	C	0.375426	0.188837	0.340882
181	C	0.356855	0.152192	0.340852
182	C	0.320212	0.133076	0.340882
183	C	0.30214	0.151649	0.340849
184	C	0.319665	0.188291	0.340882
185	C	0.356311	0.206363	0.340849
186	H	0.275626	0.138189	0.340956
187	H	0.369363	0.232876	0.340956
188	H	0.370314	0.139138	0.340956
189	C	0.20824	0.298923	0.339342
190	C	0.197698	0.269597	0.644789
191	C	0.215028	0.250227	0.644339
192	C	0.244269	0.260802	0.33947
193	C	0.255096	0.290081	0.367284
194	C	0.23739	0.308766	0.36719
195	H	0.275881	0.297908	0.388279
196	H	0.245653	0.329344	0.388598
197	C	0.262842	0.242524	0.341738
198	C	0.289847	0.251172	0.643913
199	C	0.308647	0.233582	0.643856
200	C	0.300856	0.206533	0.341275
201	C	0.273815	0.19805	0.372432
202	C	0.25467	0.215604	0.373432
203	H	0.295948	0.270304	0.620686
204	H	0.327661	0.240228	0.62032
205	H	0.268189	0.178879	0.395428
206	H	0.177054	0.262313	0.623726
207	N	0.202964	0.222143	0.616897
208	H	0.182829	0.215216	0.597825
209	H	0.213787	0.207921	0.615554
210	N	0.229099	0.205969	0.404516
211	H	0.215223	0.217137	0.406549
212	H	0.223898	0.1875	0.425903
213	C	0.20958	0.411019	0.339342
214	C	0.238906	0.429803	0.644789
215	C	0.258276	0.466503	0.644342
216	C	0.247702	0.48517	0.339473
217	C	0.218421	0.466715	0.367284
218	C	0.199736	0.430325	0.36719
219	H	0.210595	0.479675	0.388279
220	H	0.179159	0.41801	0.388598
221	C	0.265979	0.022019	0.341738
222	C	0.25733	0.040376	0.643916
223	C	0.27492	0.076766	0.643856
224	C	0.301968	0.096024	0.341278
225	C	0.310451	0.077466	0.372436
226	C	0.292898	0.040767	0.373436
227	H	0.2382	0.027346	0.620686
228	H	0.268276	0.089135	0.62032
229	H	0.329622	0.091011	0.395428
230	H	0.24619	0.416442	0.623726
231	N	0.28636	0.482522	0.616897
232	H	0.293287	0.469314	0.597828
233	H	0.300583	0.007566	0.615554
234	N	0.302533	0.024831	0.404516
235	H	0.291364	0.499786	0.406553
236	H	0.321	0.038099	0.425907
237	C	0.486482	0.24566	0.341738
238	C	0.468126	0.218658	0.643913
239	C	0.431737	0.199857	0.643852
240	C	0.412478	0.207646	0.341278
241	C	0.431035	0.234686	0.372436
242	C	0.467735	0.253831	0.373436
243	H	0.481156	0.212557	0.620682
244	H	0.419368	0.180844	0.620317
245	H	0.41749	0.24031	0.395431
246	H	0.500935	0.294717	0.615554
247	N	0.483671	0.279399	0.404519
248	H	0.470402	0.284599	0.42591
249	C	0.190645	0.373827	0.672821
250	C	0.208002	0.354526	0.672851
251	C	0.189983	0.317857	0.672825
252	H	0.234493	0.367524	0.672851
253	C	0.375426	0.188837	0.674214
254	C	0.356855	0.152192	0.674187
255	C	0.320212	0.133076	0.674217
256	C	0.30214	0.151649	0.674184
257	C	0.319665	0.188291	0.674214
258	C	0.356311	0.206363	0.674184
259	H	0.275626	0.138189	0.674288
260	H	0.369363	0.232876	0.674291
261	H	0.370314	0.139138	0.674291
262	C	0.20824	0.298923	0.672674
263	C	0.197698	0.269597	0.97812
264	C	0.215028	0.250227	0.977674
265	C	0.244269	0.260802	0.672804
266	C	0.255096	0.290081	0.700616
267	C	0.23739	0.308766	0.700522
268	H	0.275881	0.297908	0.721614
269	H	0.245653	0.329344	0.721933
270	C	0.262842	0.242524	0.67507
271	C	0.289847	0.251172	0.977247
272	C	0.308647	0.233582	0.977187
273	C	0.300856	0.206533	0.67461
274	C	0.273815	0.19805	0.705767
275	C	0.25467	0.215604	0.706767
276	H	0.295948	0.270304	0.954017
277	H	0.327661	0.240228	0.953651
278	H	0.268189	0.178879	0.728759
279	H	0.177054	0.262313	0.957061
280	N	0.202964	0.222143	0.950228
281	H	0.182829	0.215216	0.931156
282	H	0.213787	0.207921	0.948886
283	N	0.229099	0.205969	0.737847
284	H	0.215223	0.217137	0.739884
285	H	0.223898	0.1875	0.759238
286	C	0.20958	0.411019	0.672674
287	C	0.238906	0.429803	0.978123
288	C	0.258276	0.466503	0.977674
289	C	0.247702	0.48517	0.672804
290	C	0.218421	0.466715	0.700616
291	C	0.199736	0.430325	0.700522
292	H	0.210595	0.479675	0.721614
293	H	0.179159	0.41801	0.72193
294	C	0.265979	0.022019	0.675073
295	C	0.25733	0.040376	0.977247
296	C	0.27492	0.076766	0.977187
297	C	0.301968	0.096024	0.67461
298	C	0.310451	0.077466	0.705767
299	C	0.292898	0.040767	0.706767
300	H	0.2382	0.027346	0.954017
301	H	0.268276	0.089135	0.953651
302	H	0.329622	0.091011	0.728762
303	H	0.24619	0.416442	0.957061
304	N	0.28636	0.482522	0.950232
305	H	0.293287	0.469314	0.931159
306	H	0.300583	0.007566	0.948889
307	N	0.302533	0.024831	0.73785
308	H	0.291364	0.499786	0.739884
309	H	0.321	0.038099	0.759238
310	C	0.486482	0.24566	0.67507
311	C	0.468126	0.218658	0.977244
312	C	0.431737	0.199857	0.977187
313	C	0.412478	0.207646	0.67461
314	C	0.431035	0.234686	0.705767
315	C	0.467735	0.253831	0.706771
316	H	0.481156	0.212557	0.954014
317	H	0.419368	0.180844	0.953648
318	H	0.41749	0.24031	0.728762
319	H	0.500935	0.294717	0.948889
320	N	0.483671	0.279399	0.737854
321	H	0.470402	0.284599	0.759245
322	C	0.190646	0.873828	0.006157
323	C	0.208003	0.854527	0.006186
324	C	0.189984	0.817858	0.006157
325	H	0.234494	0.867526	0.006186
326	C	0.375426	0.688836	0.007549
327	C	0.356855	0.652193	0.007521
328	C	0.320212	0.633076	0.00755
329	C	0.30214	0.65165	0.007517
330	C	0.319666	0.68829	0.007548
331	C	0.356312	0.706365	0.007517
332	H	0.275627	0.63819	0.007623
333	H	0.369365	0.732877	0.007624
334	H	0.370313	0.639138	0.007624
335	C	0.208241	0.798924	0.006009
336	C	0.197698	0.769598	0.311455
337	C	0.215028	0.750227	0.311007
338	C	0.24427	0.760803	0.006138
339	C	0.255097	0.790082	0.033951
340	C	0.237391	0.808767	0.033857
341	H	0.275882	0.797909	0.054948
342	H	0.245653	0.829345	0.055266
343	C	0.262842	0.742524	0.008405
344	C	0.289846	0.751172	0.310581
345	C	0.308647	0.733581	0.310521
346	C	0.300856	0.706533	0.007943
347	C	0.273815	0.698051	0.0391
348	C	0.25467	0.715605	0.0401
349	H	0.295949	0.770305	0.287352
350	H	0.327662	0.740228	0.286986
351	H	0.268189	0.678879	0.062093
352	H	0.177054	0.762314	0.290394
353	N	0.202965	0.722143	0.283562
354	H	0.182829	0.715217	0.264492
355	H	0.213786	0.70792	0.28222
356	N	0.2291	0.705969	0.071181
357	H	0.215224	0.717137	0.073217
358	H	0.223899	0.687501	0.092571
359	C	0.209581	0.91102	0.006009
360	C	0.238907	0.929804	0.311456
361	C	0.258277	0.966504	0.311008
362	C	0.247702	0.985168	0.006139
363	C	0.21842	0.966716	0.033951
364	C	0.199737	0.930327	0.033856
365	H	0.210594	0.979676	0.054948
366	H	0.179159	0.918011	0.055265
367	C	0.265979	0.52202	0.008406
368	C	0.257332	0.540377	0.310581
369	C	0.274921	0.576766	0.310521
370	C	0.301969	0.596024	0.007944
371	C	0.310452	0.577465	0.039101
372	C	0.292899	0.540768	0.040102
373	H	0.238201	0.527347	0.287351
374	H	0.268276	0.589136	0.286986
375	H	0.329623	0.591013	0.062096
376	H	0.246191	0.916443	0.290395
377	N	0.286361	0.982523	0.283564
378	H	0.293288	0.969315	0.264494
379	H	0.300582	0.507567	0.282222
380	N	0.302532	0.524831	0.071184
381	H	0.291365	0.999787	0.073219
382	H	0.321001	0.538099	0.092574
383	C	0.486483	0.745661	0.008405
384	C	0.468126	0.718657	0.310579
385	C	0.431736	0.699858	0.310519
386	C	0.412478	0.707646	0.007944
387	C	0.431036	0.734686	0.039102
388	C	0.467736	0.753832	0.040103
389	H	0.481157	0.712559	0.287349
390	H	0.419367	0.680844	0.286983
391	H	0.417491	0.740311	0.062098
392	H	0.500936	0.794718	0.282223
393	N	0.483671	0.7794	0.071186
394	H	0.470403	0.7846	0.092578
395	C	0.190646	0.873828	0.33949
396	C	0.208003	0.854527	0.33952
397	C	0.189984	0.817858	0.33949
398	H	0.234494	0.867526	0.33952
399	C	0.375426	0.688836	0.340882
400	C	0.356855	0.652193	0.340852
401	C	0.320212	0.633076	0.340882
402	C	0.30214	0.65165	0.340849
403	C	0.319666	0.68829	0.340882
404	C	0.356312	0.706365	0.340849
405	H	0.275627	0.63819	0.340956
406	H	0.369365	0.732877	0.340956
407	H	0.370313	0.639138	0.340956
408	C	0.208241	0.798924	0.339342
409	C	0.197698	0.769598	0.644789
410	C	0.215028	0.750227	0.644339
411	C	0.24427	0.760803	0.33947
412	C	0.255097	0.790082	0.367284
413	C	0.237391	0.808767	0.36719
414	H	0.275882	0.797909	0.388279
415	H	0.245653	0.829345	0.388598
416	C	0.262842	0.742524	0.341738
417	C	0.289846	0.751172	0.643913
418	C	0.308647	0.733581	0.643856
419	C	0.300856	0.706533	0.341275
420	C	0.273815	0.698051	0.372432
421	C	0.25467	0.715605	0.373432
422	H	0.295949	0.770305	0.620686
423	H	0.327662	0.740228	0.62032
424	H	0.268189	0.678879	0.395428
425	H	0.177054	0.762314	0.623726
426	N	0.202965	0.722143	0.616897
427	H	0.182829	0.715217	0.597825
428	H	0.213786	0.70792	0.615554
429	N	0.2291	0.705969	0.404516
430	H	0.215224	0.717137	0.406549
431	H	0.223899	0.687501	0.425903
432	C	0.209581	0.91102	0.339342
433	C	0.238907	0.929804	0.644789
434	C	0.258277	0.966504	0.644342
435	C	0.247702	0.985168	0.339473
436	C	0.21842	0.966716	0.367284
437	C	0.199737	0.930327	0.36719
438	H	0.210594	0.979676	0.388279
439	H	0.179159	0.918011	0.388598
440	C	0.265979	0.52202	0.341738
441	C	0.257332	0.540377	0.643916
442	C	0.274921	0.576766	0.643856
443	C	0.301969	0.596024	0.341278
444	C	0.310452	0.577465	0.372436
445	C	0.292899	0.540768	0.373436
446	H	0.238201	0.527347	0.620686
447	H	0.268276	0.589136	0.62032
448	H	0.329623	0.591013	0.395428
449	H	0.246191	0.916443	0.623726
450	N	0.286361	0.982523	0.616897
451	H	0.293288	0.969315	0.597828
452	H	0.300582	0.507567	0.615554
453	N	0.302532	0.524831	0.404516
454	H	0.291365	0.999787	0.406553
455	H	0.321001	0.538099	0.425907
456	C	0.486483	0.745661	0.341738
457	C	0.468126	0.718657	0.643913
458	C	0.431736	0.699858	0.643852
459	C	0.412478	0.707646	0.341278
460	C	0.431036	0.734686	0.372436
461	C	0.467736	0.753832	0.373436
462	H	0.481157	0.712559	0.620682
463	H	0.419367	0.680844	0.620317
464	H	0.417491	0.740311	0.395431
465	H	0.500936	0.794718	0.615554
466	N	0.483671	0.7794	0.404519
467	H	0.470403	0.7846	0.42591
468	C	0.190646	0.873828	0.672821
469	C	0.208003	0.854527	0.672851
470	C	0.189984	0.817858	0.672825
471	H	0.234494	0.867526	0.672851
472	C	0.375426	0.688836	0.674214
473	C	0.356855	0.652193	0.674187
474	C	0.320212	0.633076	0.674217
475	C	0.30214	0.65165	0.674184
476	C	0.319666	0.68829	0.674214
477	C	0.356312	0.706365	0.674184
478	H	0.275627	0.63819	0.674288
479	H	0.369365	0.732877	0.674291
480	H	0.370313	0.639138	0.674291
481	C	0.208241	0.798924	0.672674
482	C	0.197698	0.769598	0.97812
483	C	0.215028	0.750227	0.977674
484	C	0.24427	0.760803	0.672804
485	C	0.255097	0.790082	0.700616
486	C	0.237391	0.808767	0.700522
487	H	0.275882	0.797909	0.721614
488	H	0.245653	0.829345	0.721933
489	C	0.262842	0.742524	0.67507
490	C	0.289846	0.751172	0.977247
491	C	0.308647	0.733581	0.977187
492	C	0.300856	0.706533	0.67461
493	C	0.273815	0.698051	0.705767
494	C	0.25467	0.715605	0.706767
495	H	0.295949	0.770305	0.954017
496	H	0.327662	0.740228	0.953651
497	H	0.268189	0.678879	0.728759
498	H	0.177054	0.762314	0.957061
499	N	0.202965	0.722143	0.950228
500	H	0.182829	0.715217	0.931156
501	H	0.213786	0.70792	0.948886
502	N	0.2291	0.705969	0.737847
503	H	0.215224	0.717137	0.739884
504	H	0.223899	0.687501	0.759238
505	C	0.209581	0.91102	0.672674
506	C	0.238907	0.929804	0.978123
507	C	0.258277	0.966504	0.977674
508	C	0.247702	0.985168	0.672804
509	C	0.21842	0.966716	0.700616
510	C	0.199737	0.930327	0.700522
511	H	0.210594	0.979676	0.721614
512	H	0.179159	0.918011	0.72193
513	C	0.265979	0.52202	0.675073
514	C	0.257332	0.540377	0.977247
515	C	0.274921	0.576766	0.977187
516	C	0.301969	0.596024	0.67461
517	C	0.310452	0.577465	0.705767
518	C	0.292899	0.540768	0.706767
519	H	0.238201	0.527347	0.954017
520	H	0.268276	0.589136	0.953651
521	H	0.329623	0.591013	0.728762
522	H	0.246191	0.916443	0.957061
523	N	0.286361	0.982523	0.950232
524	H	0.293288	0.969315	0.931159
525	H	0.300582	0.507567	0.948889
526	N	0.302532	0.524831	0.73785
527	H	0.291365	0.999787	0.739884
528	H	0.321001	0.538099	0.759238
529	C	0.486483	0.745661	0.67507
530	C	0.468126	0.718657	0.977244
531	C	0.431736	0.699858	0.977187
532	C	0.412478	0.707646	0.67461
533	C	0.431036	0.734686	0.705767
534	C	0.467736	0.753832	0.706771
535	H	0.481157	0.712559	0.954014
536	H	0.419367	0.680844	0.953648
537	H	0.417491	0.740311	0.728762
538	H	0.500936	0.794718	0.948889
539	N	0.483671	0.7794	0.737854
540	H	0.470403	0.7846	0.759245
541	C	0.634676	0.318519	0.006157
542	C	0.653976	0.355178	0.006185
543	C	0.690643	0.373827	0.006157
544	C	0.708002	0.354526	0.006186
545	C	0.689983	0.317857	0.006157
546	C	0.653323	0.300499	0.006186
547	H	0.734493	0.367524	0.006186
548	H	0.639833	0.274007	0.006186
549	H	0.640976	0.368668	0.006186
550	C	0.875426	0.188837	0.007549
551	C	0.856852	0.152192	0.007521
552	C	0.820212	0.133076	0.00755
553	C	0.80214	0.151649	0.007517
554	C	0.819665	0.188291	0.007548
555	C	0.856311	0.206363	0.007517
556	H	0.775626	0.138189	0.007623
557	H	0.869363	0.232876	0.007624
558	H	0.870314	0.139138	0.007624
559	C	0.70824	0.298923	0.006009
560	C	0.697697	0.269597	0.311455
561	C	0.715027	0.250227	0.311007
562	C	0.744268	0.260802	0.006138
563	C	0.755095	0.290081	0.033951
564	C	0.737391	0.308766	0.033857
565	H	0.775881	0.297908	0.054948
566	H	0.745653	0.329344	0.055266
567	C	0.762842	0.242524	0.008405
568	C	0.789846	0.251172	0.310581
569	C	0.808647	0.233582	0.310521
570	C	0.800857	0.206533	0.007943
571	C	0.773813	0.19805	0.0391
572	C	0.754669	0.215604	0.0401
573	H	0.795949	0.270304	0.287352
574	H	0.827661	0.240228	0.286986
575	H	0.768189	0.178879	0.062093
576	H	0.677053	0.262313	0.290394
577	N	0.702965	0.222143	0.283562
578	H	0.682828	0.215216	0.264492
579	H	0.713786	0.207921	0.28222
580	N	0.7291	0.205969	0.071181
581	H	0.715222	0.217137	0.073217
582	H	0.723898	0.1875	0.092571
583	C	0.70958	0.411019	0.006009
584	C	0.738906	0.429803	0.311456
585	C	0.758276	0.466503	0.311008
586	C	0.747702	0.48517	0.006139
587	C	0.71842	0.466715	0.033951
588	C	0.699736	0.430325	0.033856
589	H	0.710594	0.479675	0.054948
590	H	0.679159	0.41801	0.055265
591	C	0.765977	0.022019	0.008406
592	C	0.75733	0.040376	0.310581
593	C	0.77492	0.076766	0.310521
594	C	0.801968	0.096024	0.007944
595	C	0.810451	0.077466	0.039101
596	C	0.792898	0.040767	0.040102
597	H	0.7382	0.027346	0.287351
598	H	0.768276	0.089135	0.286986
599	H	0.829622	0.091011	0.062096
600	H	0.746191	0.416442	0.290395
601	N	0.786359	0.482522	0.283564
602	H	0.793287	0.469314	0.264494
603	H	0.800583	0.007566	0.282222
604	N	0.802533	0.024831	0.071184
605	H	0.791364	0.499786	0.073219
606	H	0.821	0.038099	0.092574
607	C	0.597483	0.300261	0.006009
608	C	0.578701	0.310806	0.311456
609	C	0.542	0.293474	0.311008
610	C	0.523334	0.264234	0.006138
611	C	0.541786	0.253406	0.033951
612	C	0.578176	0.271111	0.033856
613	H	0.528826	0.232621	0.054947
614	H	0.590491	0.262849	0.055265
615	C	0.986482	0.24566	0.008405
616	C	0.968126	0.218658	0.310579
617	C	0.931734	0.199857	0.310519
618	C	0.912478	0.207646	0.007944
619	C	0.931035	0.234686	0.039102
620	C	0.967735	0.253831	0.040103
621	H	0.981156	0.212557	0.287349
622	H	0.919368	0.180844	0.286983
623	H	0.91749	0.24031	0.062098
624	H	0.592061	0.331451	0.290395
625	N	0.525979	0.305539	0.283565
626	H	0.539189	0.325676	0.264495
627	H	0.000935	0.294717	0.282223
628	N	0.983671	0.279399	0.071187
629	H	0.508714	0.293275	0.073222
630	H	0.970402	0.284599	0.092578
631	C	0.634676	0.318519	0.33949
632	C	0.653976	0.355178	0.33952
633	C	0.690643	0.373827	0.33949
634	C	0.708002	0.354526	0.33952
635	C	0.689983	0.317857	0.33949
636	C	0.653323	0.300499	0.33952
637	H	0.734493	0.367524	0.33952
638	H	0.639833	0.274007	0.33952
639	H	0.640976	0.368668	0.33952
640	C	0.875426	0.188837	0.340882
641	C	0.856852	0.152192	0.340852
642	C	0.820212	0.133076	0.340882
643	C	0.80214	0.151649	0.340849
644	C	0.819665	0.188291	0.340882
645	C	0.856311	0.206363	0.340849
646	H	0.775626	0.138189	0.340956
647	H	0.869363	0.232876	0.340956
648	H	0.870314	0.139138	0.340956
649	C	0.70824	0.298923	0.339342
650	C	0.697697	0.269597	0.644789
651	C	0.715027	0.250227	0.644339
652	C	0.744268	0.260802	0.33947
653	C	0.755095	0.290081	0.367284
654	C	0.737391	0.308766	0.36719
655	H	0.775881	0.297908	0.388279
656	H	0.745653	0.329344	0.388598
657	C	0.762842	0.242524	0.341738
658	C	0.789846	0.251172	0.643913
659	C	0.808647	0.233582	0.643856
660	C	0.800857	0.206533	0.341275
661	C	0.773813	0.19805	0.372432
662	C	0.754669	0.215604	0.373432
663	H	0.795949	0.270304	0.620686
664	H	0.827661	0.240228	0.62032
665	H	0.768189	0.178879	0.395428
666	H	0.677053	0.262313	0.623726
667	N	0.702965	0.222143	0.616897
668	H	0.682828	0.215216	0.597825
669	H	0.713786	0.207921	0.615554
670	N	0.7291	0.205969	0.404516
671	H	0.715222	0.217137	0.406549
672	H	0.723898	0.1875	0.425903
673	C	0.70958	0.411019	0.339342
674	C	0.738906	0.429803	0.644789
675	C	0.758276	0.466503	0.644342
676	C	0.747702	0.48517	0.339473
677	C	0.71842	0.466715	0.367284
678	C	0.699736	0.430325	0.36719
679	H	0.710594	0.479675	0.388279
680	H	0.679159	0.41801	0.388598
681	C	0.765977	0.022019	0.341738
682	C	0.75733	0.040376	0.643916
683	C	0.77492	0.076766	0.643856
684	C	0.801968	0.096024	0.341278
685	C	0.810451	0.077466	0.372436
686	C	0.792898	0.040767	0.373436
687	H	0.7382	0.027346	0.620686
688	H	0.768276	0.089135	0.62032
689	H	0.829622	0.091011	0.395428
690	H	0.746191	0.416442	0.623726
691	N	0.786359	0.482522	0.616897
692	H	0.793287	0.469314	0.597828
693	H	0.800583	0.007566	0.615554
694	N	0.802533	0.024831	0.404516
695	H	0.791364	0.499786	0.406553
696	H	0.821	0.038099	0.425907
697	C	0.597483	0.300261	0.339342
698	C	0.578701	0.310806	0.644789
699	C	0.542	0.293474	0.644342
700	C	0.523334	0.264234	0.339473
701	C	0.541786	0.253406	0.367284
702	C	0.578176	0.271111	0.36719
703	H	0.528826	0.232621	0.388279
704	H	0.590491	0.262849	0.388598
705	C	0.986482	0.24566	0.341738
706	C	0.968126	0.218658	0.643913
707	C	0.931734	0.199857	0.643852
708	C	0.912478	0.207646	0.341278
709	C	0.931035	0.234686	0.372436
710	C	0.967735	0.253831	0.373436
711	H	0.981156	0.212557	0.620682
712	H	0.919368	0.180844	0.620317
713	H	0.91749	0.24031	0.395431
714	H	0.592061	0.331451	0.623726
715	N	0.525979	0.305539	0.616897
716	H	0.539189	0.325676	0.597828
717	H	0.000935	0.294717	0.615554
718	N	0.983671	0.279399	0.404519
719	H	0.508714	0.293275	0.406556
720	H	0.970402	0.284599	0.42591
721	C	0.634676	0.318519	0.672821
722	C	0.653976	0.355178	0.672851
723	C	0.690643	0.373827	0.672821
724	C	0.708002	0.354526	0.672851
725	C	0.689983	0.317857	0.672825
726	C	0.653323	0.300499	0.672851
727	H	0.734493	0.367524	0.672851
728	H	0.639833	0.274007	0.672851
729	H	0.640976	0.368668	0.672851
730	C	0.875426	0.188837	0.674214
731	C	0.856852	0.152192	0.674187
732	C	0.820212	0.133076	0.674217
733	C	0.80214	0.151649	0.674184
734	C	0.819665	0.188291	0.674214
735	C	0.856311	0.206363	0.674184
736	H	0.775626	0.138189	0.674288
737	H	0.869363	0.232876	0.674291
738	H	0.870314	0.139138	0.674291
739	C	0.70824	0.298923	0.672674
740	C	0.697697	0.269597	0.97812
741	C	0.715027	0.250227	0.977674
742	C	0.744268	0.260802	0.672804
743	C	0.755095	0.290081	0.700616
744	C	0.737391	0.308766	0.700522
745	H	0.775881	0.297908	0.721614
746	H	0.745653	0.329344	0.721933
747	C	0.762842	0.242524	0.67507
748	C	0.789846	0.251172	0.977247
749	C	0.808647	0.233582	0.977187
750	C	0.800857	0.206533	0.67461
751	C	0.773813	0.19805	0.705767
752	C	0.754669	0.215604	0.706767
753	H	0.795949	0.270304	0.954017
754	H	0.827661	0.240228	0.953651
755	H	0.768189	0.178879	0.728759
756	H	0.677053	0.262313	0.957061
757	N	0.702965	0.222143	0.950228
758	H	0.682828	0.215216	0.931156
759	H	0.713786	0.207921	0.948886
760	N	0.7291	0.205969	0.737847
761	H	0.715222	0.217137	0.739884
762	H	0.723898	0.1875	0.759238
763	C	0.70958	0.411019	0.672674
764	C	0.738906	0.429803	0.978123
765	C	0.758276	0.466503	0.977674
766	C	0.747702	0.48517	0.672804
767	C	0.71842	0.466715	0.700616
768	C	0.699736	0.430325	0.700522
769	H	0.710594	0.479675	0.721614
770	H	0.679159	0.41801	0.72193
771	C	0.765977	0.022019	0.675073
772	C	0.75733	0.040376	0.977247
773	C	0.77492	0.076766	0.977187
774	C	0.801968	0.096024	0.67461
775	C	0.810451	0.077466	0.705767
776	C	0.792898	0.040767	0.706767
777	H	0.7382	0.027346	0.954017
778	H	0.768276	0.089135	0.953651
779	H	0.829622	0.091011	0.728762
780	H	0.746191	0.416442	0.957061
781	N	0.786359	0.482522	0.950232
782	H	0.793287	0.469314	0.931159
783	H	0.800583	0.007566	0.948889
784	N	0.802533	0.024831	0.73785
785	H	0.791364	0.499786	0.739884
786	H	0.821	0.038099	0.759238
787	C	0.597483	0.300261	0.672674
788	C	0.578701	0.310806	0.978123
789	C	0.542	0.293474	0.977674
790	C	0.523334	0.264234	0.672804
791	C	0.541786	0.253406	0.700616
792	C	0.578176	0.271111	0.700522
793	H	0.528826	0.232621	0.721614
794	H	0.590491	0.262849	0.72193
795	C	0.986482	0.24566	0.67507
796	C	0.968126	0.218658	0.977244
797	C	0.931734	0.199857	0.977187
798	C	0.912478	0.207646	0.67461
799	C	0.931035	0.234686	0.705767
800	C	0.967735	0.253831	0.706771
801	H	0.981156	0.212557	0.954014
802	H	0.919368	0.180844	0.953648
803	H	0.91749	0.24031	0.728762
804	H	0.592061	0.331451	0.957061
805	N	0.525979	0.305539	0.950232
806	H	0.539189	0.325676	0.931159
807	H	0.000935	0.294717	0.948889
808	N	0.983671	0.279399	0.737854
809	H	0.508714	0.293275	0.739888
810	H	0.970402	0.284599	0.759245
811	C	0.634677	0.81852	0.006157
812	C	0.653977	0.855179	0.006185
813	C	0.690644	0.873828	0.006157
814	C	0.708002	0.854527	0.006186
815	C	0.689984	0.817858	0.006157
816	C	0.653323	0.8005	0.006186
817	H	0.734494	0.867526	0.006186
818	H	0.639833	0.774009	0.006186
819	H	0.640977	0.86867	0.006186
820	C	0.875426	0.688836	0.007549
821	C	0.856855	0.652193	0.007521
822	C	0.820212	0.633076	0.00755
823	C	0.80214	0.65165	0.007517
824	C	0.819665	0.68829	0.007548
825	C	0.856312	0.706365	0.007517
826	H	0.775627	0.63819	0.007623
827	H	0.869364	0.732877	0.007624
828	H	0.870313	0.639138	0.007624
829	C	0.70824	0.798924	0.006009
830	C	0.697697	0.769598	0.311455
831	C	0.715027	0.750227	0.311007
832	C	0.744269	0.760803	0.006138
833	C	0.755098	0.790082	0.033951
834	C	0.737391	0.808767	0.033857
835	H	0.775881	0.797909	0.054948
836	H	0.745654	0.829345	0.055266
837	C	0.762842	0.742524	0.008405
838	C	0.789846	0.751172	0.310581
839	C	0.808647	0.733581	0.310521
840	C	0.800856	0.706533	0.007943
841	C	0.773814	0.698051	0.0391
842	C	0.75467	0.715605	0.0401
843	H	0.795949	0.770305	0.287352
844	H	0.827661	0.740228	0.286986
845	H	0.768189	0.678879	0.062093
846	H	0.677053	0.762314	0.290394
847	N	0.702965	0.722143	0.283562
848	H	0.682829	0.715217	0.264492
849	H	0.713786	0.70792	0.28222
850	N	0.7291	0.705969	0.071181
851	H	0.715223	0.717137	0.073217
852	H	0.723898	0.687501	0.092571
853	C	0.709581	0.91102	0.006009
854	C	0.738907	0.929804	0.311456
855	C	0.758277	0.966504	0.311008
856	C	0.747702	0.985168	0.006139
857	C	0.71842	0.966716	0.033951
858	C	0.699737	0.930327	0.033856
859	H	0.710595	0.979676	0.054948
860	H	0.679159	0.918011	0.055265
861	C	0.765977	0.52202	0.008406
862	C	0.757331	0.540377	0.310581
863	C	0.77492	0.576766	0.310521
864	C	0.801968	0.596024	0.007944
865	C	0.810451	0.577465	0.039101
866	C	0.792898	0.540768	0.040102
867	H	0.7382	0.527347	0.287351
868	H	0.768277	0.589136	0.286986
869	H	0.829623	0.591013	0.062096
870	H	0.746191	0.916443	0.290395
871	N	0.78636	0.982523	0.283564
872	H	0.793288	0.969315	0.264494
873	H	0.800583	0.507567	0.282222
874	N	0.802533	0.524831	0.071184
875	H	0.791365	0.999787	0.073219
876	H	0.821	0.538099	0.092574
877	C	0.597484	0.800262	0.006009
878	C	0.5787	0.810805	0.311456
879	C	0.542	0.793476	0.311008
880	C	0.523334	0.764235	0.006138
881	C	0.541786	0.753405	0.033951
882	C	0.578177	0.771112	0.033856
883	H	0.528828	0.732621	0.054947
884	H	0.590492	0.76285	0.055265
885	C	0.986483	0.745661	0.008405
886	C	0.968125	0.718657	0.310579
887	C	0.931735	0.699858	0.310519
888	C	0.912478	0.707646	0.007944
889	C	0.931035	0.734686	0.039102
890	C	0.967736	0.753832	0.040103
891	H	0.981157	0.712559	0.287349
892	H	0.919368	0.680844	0.286983
893	H	0.917491	0.740311	0.062098
894	H	0.59206	0.831449	0.290395
895	N	0.52598	0.80554	0.283565
896	H	0.539188	0.825675	0.264495
897	H	0.000935	0.794718	0.282223
898	N	0.983671	0.7794	0.071186
899	H	0.508715	0.793276	0.073222
900	H	0.970403	0.7846	0.092578
901	C	0.634677	0.81852	0.33949
902	C	0.653977	0.855179	0.33952
903	C	0.690644	0.873828	0.33949
904	C	0.708002	0.854527	0.33952
905	C	0.689984	0.817858	0.33949
906	C	0.653323	0.8005	0.33952
907	H	0.734494	0.867526	0.33952
908	H	0.639833	0.774009	0.33952
909	H	0.640977	0.86867	0.33952
910	C	0.875426	0.688836	0.340882
911	C	0.856855	0.652193	0.340852
912	C	0.820212	0.633076	0.340882
913	C	0.80214	0.65165	0.340849
914	C	0.819665	0.68829	0.340882
915	C	0.856312	0.706365	0.340849
916	H	0.775627	0.63819	0.340956
917	H	0.869364	0.732877	0.340956
918	H	0.870313	0.639138	0.340956
919	C	0.70824	0.798924	0.339342
920	C	0.697697	0.769598	0.644789
921	C	0.715027	0.750227	0.644339
922	C	0.744269	0.760803	0.33947
923	C	0.755098	0.790082	0.367284
924	C	0.737391	0.808767	0.36719
925	H	0.775881	0.797909	0.388279
926	H	0.745654	0.829345	0.388598
927	C	0.762842	0.742524	0.341738
928	C	0.789846	0.751172	0.643913
929	C	0.808647	0.733581	0.643856
930	C	0.800856	0.706533	0.341275
931	C	0.773814	0.698051	0.372432
932	C	0.75467	0.715605	0.373432
933	H	0.795949	0.770305	0.620686
934	H	0.827661	0.740228	0.62032
935	H	0.768189	0.678879	0.395428
936	H	0.677053	0.762314	0.623726
937	N	0.702965	0.722143	0.616897
938	H	0.682829	0.715217	0.597825
939	H	0.713786	0.70792	0.615554
940	N	0.7291	0.705969	0.404516
941	H	0.715223	0.717137	0.406549
942	H	0.723898	0.687501	0.425903
943	C	0.709581	0.91102	0.339342
944	C	0.738907	0.929804	0.644789
945	C	0.758277	0.966504	0.644342
946	C	0.747702	0.985168	0.339473
947	C	0.71842	0.966716	0.367284
948	C	0.699737	0.930327	0.36719
949	H	0.710595	0.979676	0.388279
950	H	0.679159	0.918011	0.388598
951	C	0.765977	0.52202	0.341738
952	C	0.757331	0.540377	0.643916
953	C	0.77492	0.576766	0.643856
954	C	0.801968	0.596024	0.341278
955	C	0.810451	0.577465	0.372436
956	C	0.792898	0.540768	0.373436
957	H	0.7382	0.527347	0.620686
958	H	0.768277	0.589136	0.62032
959	H	0.829623	0.591013	0.395428
960	H	0.746191	0.916443	0.623726
961	N	0.78636	0.982523	0.616897
962	H	0.793288	0.969315	0.597828
963	H	0.800583	0.507567	0.615554
964	N	0.802533	0.524831	0.404516
965	H	0.791365	0.999787	0.406553
966	H	0.821	0.538099	0.425907
967	C	0.597484	0.800262	0.339342
968	C	0.5787	0.810805	0.644789
969	C	0.542	0.793476	0.644342
970	C	0.523334	0.764235	0.339473
971	C	0.541786	0.753405	0.367284
972	C	0.578177	0.771112	0.36719
973	H	0.528828	0.732621	0.388279
974	H	0.590492	0.76285	0.388598
975	C	0.986483	0.745661	0.341738
976	C	0.968125	0.718657	0.643913
977	C	0.931735	0.699858	0.643852
978	C	0.912478	0.707646	0.341278
979	C	0.931035	0.734686	0.372436
980	C	0.967736	0.753832	0.373436
981	H	0.981157	0.712559	0.620682
982	H	0.919368	0.680844	0.620317
983	H	0.917491	0.740311	0.395431
984	H	0.59206	0.831449	0.623726
985	N	0.52598	0.80554	0.616897
986	H	0.539188	0.825675	0.597828
987	H	0.000935	0.794718	0.615554
988	N	0.983671	0.7794	0.404519
989	H	0.508715	0.793276	0.406556
990	H	0.970403	0.7846	0.42591
991	C	0.634677	0.81852	0.672821
992	C	0.653977	0.855179	0.672851
993	C	0.690644	0.873828	0.672821
994	C	0.708002	0.854527	0.672851
995	C	0.689984	0.817858	0.672825
996	C	0.653323	0.8005	0.672851
997	H	0.734494	0.867526	0.672851
998	H	0.639833	0.774009	0.672851
999	H	0.640977	0.86867	0.672851
1000	C	0.875426	0.688836	0.674214
1001	C	0.856855	0.652193	0.674187
1002	C	0.820212	0.633076	0.674217
1003	C	0.80214	0.65165	0.674184
1004	C	0.819665	0.68829	0.674214
1005	C	0.856312	0.706365	0.674184
1006	H	0.775627	0.63819	0.674288
1007	H	0.869364	0.732877	0.674291
1008	H	0.870313	0.639138	0.674291
1009	C	0.70824	0.798924	0.672674
1010	C	0.697697	0.769598	0.97812
1011	C	0.715027	0.750227	0.977674
1012	C	0.744269	0.760803	0.672804
1013	C	0.755098	0.790082	0.700616
1014	C	0.737391	0.808767	0.700522
1015	H	0.775881	0.797909	0.721614
1016	H	0.745654	0.829345	0.721933
1017	C	0.762842	0.742524	0.67507
1018	C	0.789846	0.751172	0.977247
1019	C	0.808647	0.733581	0.977187
1020	C	0.800856	0.706533	0.67461
1021	C	0.773814	0.698051	0.705767
1022	C	0.75467	0.715605	0.706767
1023	H	0.795949	0.770305	0.954017
1024	H	0.827661	0.740228	0.953651
1025	H	0.768189	0.678879	0.728759
1026	H	0.677053	0.762314	0.957061
1027	N	0.702965	0.722143	0.950228
1028	H	0.682829	0.715217	0.931156
1029	H	0.713786	0.70792	0.948886
1030	N	0.7291	0.705969	0.737847
1031	H	0.715223	0.717137	0.739884
1032	H	0.723898	0.687501	0.759238
1033	C	0.709581	0.91102	0.672674
1034	C	0.738907	0.929804	0.978123
1035	C	0.758277	0.966504	0.977674
1036	C	0.747702	0.985168	0.672804
1037	C	0.71842	0.966716	0.700616
1038	C	0.699737	0.930327	0.700522
1039	H	0.710595	0.979676	0.721614
1040	H	0.679159	0.918011	0.72193
1041	C	0.765977	0.52202	0.675073
1042	C	0.757331	0.540377	0.977247
1043	C	0.77492	0.576766	0.977187
1044	C	0.801968	0.596024	0.67461
1045	C	0.810451	0.577465	0.705767
1046	C	0.792898	0.540768	0.706767
1047	H	0.7382	0.527347	0.954017
1048	H	0.768277	0.589136	0.953651
1049	H	0.829623	0.591013	0.728762
1050	H	0.746191	0.916443	0.957061
1051	N	0.78636	0.982523	0.950232
1052	H	0.793288	0.969315	0.931159
1053	H	0.800583	0.507567	0.948889
1054	N	0.802533	0.524831	0.73785
1055	H	0.791365	0.999787	0.739884
1056	H	0.821	0.538099	0.759238
1057	C	0.597484	0.800262	0.672674
1058	C	0.5787	0.810805	0.978123
1059	C	0.542	0.793476	0.977674
1060	C	0.523334	0.764235	0.672804
1061	C	0.541786	0.753405	0.700616
1062	C	0.578177	0.771112	0.700522
1063	H	0.528828	0.732621	0.721614
1064	H	0.590492	0.76285	0.72193
1065	C	0.986483	0.745661	0.67507
1066	C	0.968125	0.718657	0.977244
1067	C	0.931735	0.699858	0.977187
1068	C	0.912478	0.707646	0.67461
1069	C	0.931035	0.734686	0.705767
1070	C	0.967736	0.753832	0.706771
1071	H	0.981157	0.712559	0.954014
1072	H	0.919368	0.680844	0.953648
1073	H	0.917491	0.740311	0.728762
1074	H	0.59206	0.831449	0.957061
1075	N	0.52598	0.80554	0.950232
1076	H	0.539188	0.825675	0.931159
1077	H	0.000935	0.794718	0.948889
1078	N	0.983671	0.7794	0.737854
1079	H	0.508715	0.793276	0.739888
1080	H	0.970403	0.7846	0.759245
