data_C432H216N144O144_2018-02-15_10:45:45
#******************************************
#
# CIF file created by Zeo++
# Zeo++ is an open source package to
# analyze microporous materials
#
#*******************************************

_cell_length_a		45.8345   
_cell_length_b		45.8343   
_cell_length_c		29.1864   
_cell_angle_alpha		90   
_cell_angle_beta		90   
_cell_angle_gamma		120   

_symmetry_space_group_name_H-M		'P1'
_symmetry_Int_Tables_number		1
_symmetry_cell_setting		Monoclinic

loop_
_symmetry_equiv_pos_as_xyz
'+x,+y,+z'

loop_
_atom_site_label
_atom_site_type_symbol
_atom_site_fract_x
_atom_site_fract_y
_atom_site_fract_z
1	C	0.21368	0.338616	0.014785
2	C	0.221475	0.372783	0.014822
3	C	0.196231	0.382038	0.01475
4	C	0.162064	0.355666	0.014772
5	C	0.152809	0.321167	0.014756
6	C	0.17918	0.313373	0.014815
7	H	0.143383	0.361743	0.014517
8	H	0.173104	0.288613	0.014581
9	H	0.246235	0.391466	0.014594
10	C	0.20391	0.41614	0.014102
11	C	0.118708	0.294742	0.014137
12	C	0.240104	0.33094	0.014175
13	H	0.264142	0.350751	0.013534
14	H	0.114482	0.270703	0.013503
15	H	0.184103	0.42037	0.013397
16	H	0.294662	0.139021	0.015275
17	C	0.304702	0.201083	0.01553
18	H	0.279933	0.18259	0.016837
19	C	0.292145	0.248436	0.347131
20	C	0.308652	0.283673	0.341738
21	C	0.291002	0.301819	0.341541
22	C	0.255395	0.284496	0.014406
23	C	0.238493	0.248891	0.019836
24	C	0.256814	0.231396	0.019283
25	H	0.243998	0.205837	0.023559
26	N	0.308927	0.336956	0.33388
27	N	0.203114	0.231211	0.026482
28	O	0.195286	0.216499	0.064611
29	O	0.188187	0.209803	0.995464
30	N	0.235791	0.299325	0.015487
31	C	0.286409	0.050679	0.347107
32	C	0.251197	0.031945	0.341446
33	C	0.233057	0.496147	0.341234
34	C	0.250356	0.477867	0.014387
35	C	0.285939	0.496576	0.020085
36	H	0.238288	0.044603	0.33664
37	C	0.303431	0.032391	0.01952
38	N	0.197962	0.478928	0.333221
39	N	0.303592	0.478883	0.02704
40	O	0.182403	0.485463	0.363241
41	O	0.190945	0.485597	0.294376
42	N	0.301317	0.084975	0.346535
43	N	0.235526	0.443436	0.015506
44	C	0.038688	0.243843	0.341532
45	C	0.056974	0.27945	0.014394
46	C	0.038271	0.296352	0.019842
47	N	0.055899	0.22592	0.333848
48	N	0.05597	0.331731	0.026484
49	O	0.049222	0.21203	0.29514
50	O	0.049098	0.339561	0.064621
51	O	0.049366	0.203984	0.364111
52	O	0.049478	0.346655	0.995474
53	N	0.091406	0.299055	0.015462
54	C	0.21368	0.338616	0.348118
55	C	0.221475	0.372783	0.348155
56	C	0.196231	0.382038	0.348083
57	C	0.162064	0.355666	0.348104
58	C	0.152809	0.321167	0.34809
59	C	0.17918	0.313373	0.348148
60	H	0.143383	0.361743	0.34785
61	H	0.173104	0.288613	0.347916
62	H	0.246235	0.391466	0.347926
63	C	0.20391	0.41614	0.347436
64	C	0.118708	0.294742	0.34747
65	C	0.240104	0.33094	0.347508
66	H	0.264142	0.350751	0.346867
67	H	0.114482	0.270703	0.346836
68	H	0.184103	0.42037	0.34673
69	H	0.294662	0.139021	0.348608
70	C	0.304702	0.201083	0.348865
71	H	0.279933	0.18259	0.35017
72	C	0.292145	0.248436	0.680464
73	C	0.308652	0.283673	0.675071
74	C	0.291002	0.301819	0.674873
75	C	0.255395	0.284496	0.347741
76	C	0.238493	0.248891	0.353168
77	C	0.256814	0.231396	0.352616
78	H	0.243998	0.205837	0.356892
79	N	0.308927	0.336956	0.667212
80	N	0.203114	0.231211	0.359815
81	O	0.195286	0.216499	0.397946
82	O	0.188187	0.209803	0.328798
83	N	0.235791	0.299325	0.34882
84	C	0.286409	0.050679	0.68044
85	C	0.251197	0.031945	0.67478
86	C	0.233057	0.496147	0.674568
87	C	0.250356	0.477867	0.34772
88	C	0.285939	0.496576	0.353418
89	H	0.238288	0.044603	0.669973
90	C	0.303431	0.032391	0.352853
91	N	0.197962	0.478928	0.666554
92	N	0.303592	0.478883	0.360373
93	O	0.182403	0.485463	0.696575
94	O	0.190945	0.485597	0.62771
95	N	0.301317	0.084975	0.679868
96	N	0.235526	0.443436	0.348841
97	C	0.038688	0.243843	0.674866
98	C	0.056974	0.27945	0.347727
99	C	0.038271	0.296352	0.353175
100	N	0.055899	0.22592	0.667181
101	N	0.05597	0.331731	0.359818
102	O	0.049222	0.21203	0.628474
103	O	0.049098	0.339561	0.397953
104	O	0.049366	0.203984	0.697445
105	O	0.049478	0.346655	0.328809
106	N	0.091406	0.299055	0.348796
107	C	0.21368	0.338616	0.681451
108	C	0.221475	0.372783	0.681489
109	C	0.196231	0.382038	0.681417
110	C	0.162064	0.355666	0.681437
111	C	0.152809	0.321167	0.681424
112	C	0.17918	0.313373	0.681482
113	H	0.143383	0.361743	0.681184
114	H	0.173104	0.288613	0.681249
115	H	0.246235	0.391466	0.681259
116	C	0.20391	0.41614	0.680769
117	C	0.118708	0.294742	0.680803
118	C	0.240104	0.33094	0.680841
119	H	0.264142	0.350751	0.6802
120	H	0.114482	0.270703	0.68017
121	H	0.184103	0.42037	0.680063
122	H	0.294662	0.139021	0.681941
123	C	0.304702	0.201083	0.682198
124	H	0.279933	0.18259	0.683503
125	C	0.292145	0.248436	0.013798
126	C	0.308652	0.283673	0.008405
127	C	0.291002	0.301819	0.008206
128	C	0.255395	0.284496	0.681074
129	C	0.238493	0.248891	0.686501
130	C	0.256814	0.231396	0.68595
131	H	0.243998	0.205837	0.690226
132	N	0.308927	0.336956	0.000545
133	N	0.203114	0.231211	0.693148
134	O	0.195286	0.216499	0.731279
135	O	0.188187	0.209803	0.66213
136	N	0.235791	0.299325	0.682153
137	C	0.286409	0.050679	0.013774
138	C	0.251197	0.031945	0.008113
139	C	0.233057	0.496147	0.007901
140	C	0.250356	0.477867	0.681054
141	C	0.285939	0.496576	0.686751
142	H	0.238288	0.044603	0.003306
143	C	0.303431	0.032391	0.686186
144	N	0.197962	0.478928	0.999887
145	N	0.303592	0.478883	0.693707
146	O	0.182403	0.485463	0.029907
147	O	0.190945	0.485597	0.961044
148	N	0.301317	0.084975	0.013201
149	N	0.235526	0.443436	0.682174
150	C	0.038688	0.243843	0.008199
151	C	0.056974	0.27945	0.68106
152	C	0.038271	0.296352	0.686508
153	N	0.055899	0.22592	0.000514
154	N	0.05597	0.331731	0.693152
155	O	0.049222	0.21203	0.961808
156	O	0.049098	0.339561	0.731286
157	O	0.049366	0.203984	0.030777
158	O	0.049478	0.346655	0.662141
159	N	0.091406	0.299055	0.682129
160	C	0.213682	0.838618	0.014785
161	C	0.221476	0.872782	0.014822
162	C	0.196231	0.882038	0.014751
163	C	0.162066	0.855668	0.014772
164	C	0.152809	0.821167	0.014757
165	C	0.17918	0.813372	0.014815
166	H	0.143385	0.861745	0.014518
167	H	0.173103	0.788612	0.014581
168	H	0.246235	0.891465	0.014595
169	C	0.203911	0.916139	0.014102
170	C	0.118709	0.794742	0.014137
171	C	0.240106	0.830942	0.014175
172	H	0.264143	0.850753	0.013534
173	H	0.114484	0.770705	0.013503
174	H	0.184103	0.920369	0.013397
175	H	0.294663	0.639022	0.015274
176	C	0.304703	0.701085	0.01553
177	H	0.279933	0.68259	0.016837
178	C	0.292147	0.748437	0.347131
179	C	0.308652	0.783672	0.341739
180	C	0.291004	0.801821	0.341542
181	C	0.255396	0.784498	0.014407
182	C	0.238493	0.748891	0.019835
183	C	0.256814	0.731397	0.019283
184	H	0.243999	0.705838	0.023558
185	N	0.308928	0.836958	0.333882
186	N	0.203114	0.73121	0.026481
187	O	0.195287	0.7165	0.06461
188	O	0.188188	0.709804	0.995464
189	N	0.235791	0.799324	0.015488
190	C	0.286411	0.55068	0.347107
191	C	0.251197	0.531944	0.341446
192	C	0.233059	0.996149	0.341234
193	C	0.250358	0.977869	0.014387
194	C	0.28594	0.996578	0.020085
195	H	0.238289	0.544604	0.33664
196	C	0.303433	0.532393	0.019519
197	N	0.197963	0.97893	0.333221
198	N	0.303592	0.978882	0.02704
199	O	0.182404	0.985465	0.363241
200	O	0.190947	0.985599	0.294376
201	N	0.301318	0.584975	0.346535
202	N	0.235527	0.943438	0.015507
203	C	0.03869	0.743844	0.341532
204	C	0.056976	0.779452	0.014395
205	C	0.038271	0.796352	0.019842
206	N	0.0559	0.72592	0.333848
207	N	0.055971	0.831733	0.026485
208	O	0.049222	0.712031	0.295139
209	O	0.0491	0.83956	0.064622
210	O	0.049368	0.703984	0.364111
211	O	0.049478	0.846657	0.995477
212	N	0.091408	0.799057	0.015462
213	C	0.213682	0.838618	0.348118
214	C	0.221476	0.872782	0.348155
215	C	0.196231	0.882038	0.348083
216	C	0.162066	0.855668	0.348104
217	C	0.152809	0.821167	0.34809
218	C	0.17918	0.813372	0.348148
219	H	0.143385	0.861745	0.34785
220	H	0.173103	0.788612	0.347916
221	H	0.246235	0.891465	0.347929
222	C	0.203911	0.916139	0.347436
223	C	0.118709	0.794742	0.34747
224	C	0.240106	0.830942	0.347508
225	H	0.264143	0.850753	0.346867
226	H	0.114484	0.770705	0.346836
227	H	0.184103	0.920369	0.34673
228	H	0.294663	0.639022	0.348608
229	C	0.304703	0.701085	0.348865
230	H	0.279933	0.68259	0.35017
231	C	0.292147	0.748437	0.680464
232	C	0.308652	0.783672	0.675071
233	C	0.291004	0.801821	0.674876
234	C	0.255396	0.784498	0.347741
235	C	0.238493	0.748891	0.353168
236	C	0.256814	0.731397	0.352616
237	H	0.243999	0.705838	0.356892
238	N	0.308928	0.836958	0.667215
239	N	0.203114	0.73121	0.359815
240	O	0.195287	0.7165	0.397942
241	O	0.188188	0.709804	0.328796
242	N	0.235791	0.799324	0.34882
243	C	0.286411	0.55068	0.68044
244	C	0.251197	0.531944	0.67478
245	C	0.233059	0.996149	0.674568
246	C	0.250358	0.977869	0.34772
247	C	0.28594	0.996578	0.353418
248	H	0.238289	0.544604	0.669973
249	C	0.303433	0.532393	0.352853
250	N	0.197963	0.97893	0.666554
251	N	0.303592	0.978882	0.360373
252	O	0.182404	0.985465	0.696575
253	O	0.190947	0.985599	0.62771
254	N	0.301318	0.584975	0.679868
255	N	0.235527	0.943438	0.348841
256	C	0.03869	0.743844	0.674866
257	C	0.056976	0.779452	0.347727
258	C	0.038271	0.796352	0.353175
259	N	0.0559	0.72592	0.667181
260	N	0.055971	0.831733	0.359818
261	O	0.049222	0.712031	0.628471
262	O	0.0491	0.83956	0.397956
263	O	0.049368	0.703984	0.697445
264	O	0.049478	0.846657	0.32881
265	N	0.091408	0.799057	0.348796
266	C	0.213682	0.838618	0.681451
267	C	0.221476	0.872782	0.681489
268	C	0.196231	0.882038	0.681417
269	C	0.162066	0.855668	0.681437
270	C	0.152809	0.821167	0.681424
271	C	0.17918	0.813372	0.681482
272	H	0.143385	0.861745	0.681184
273	H	0.173103	0.788612	0.681249
274	H	0.246235	0.891465	0.681263
275	C	0.203911	0.916139	0.680769
276	C	0.118709	0.794742	0.680803
277	C	0.240106	0.830942	0.680841
278	H	0.264143	0.850753	0.6802
279	H	0.114484	0.770705	0.68017
280	H	0.184103	0.920369	0.680063
281	H	0.294663	0.639022	0.681941
282	C	0.304703	0.701085	0.682198
283	H	0.279933	0.68259	0.683503
284	C	0.292147	0.748437	0.013798
285	C	0.308652	0.783672	0.008405
286	C	0.291004	0.801821	0.008209
287	C	0.255396	0.784498	0.681074
288	C	0.238493	0.748891	0.686501
289	C	0.256814	0.731397	0.68595
290	H	0.243999	0.705838	0.690226
291	N	0.308928	0.836958	0.000548
292	N	0.203114	0.73121	0.693148
293	O	0.195287	0.7165	0.731276
294	O	0.188188	0.709804	0.66213
295	N	0.235791	0.799324	0.682153
296	C	0.286411	0.55068	0.013774
297	C	0.251197	0.531944	0.008113
298	C	0.233059	0.996149	0.007901
299	C	0.250358	0.977869	0.681054
300	C	0.28594	0.996578	0.686751
301	H	0.238289	0.544604	0.003306
302	C	0.303433	0.532393	0.686186
303	N	0.197963	0.97893	0.999887
304	N	0.303592	0.978882	0.693707
305	O	0.182404	0.985465	0.029908
306	O	0.190947	0.985599	0.961044
307	N	0.301318	0.584975	0.013201
308	N	0.235527	0.943438	0.682174
309	C	0.03869	0.743844	0.008199
310	C	0.056976	0.779452	0.68106
311	C	0.038271	0.796352	0.686508
312	N	0.0559	0.72592	0.000514
313	N	0.055971	0.831733	0.693152
314	O	0.049222	0.712031	0.961804
315	O	0.0491	0.83956	0.731289
316	O	0.049368	0.703984	0.030777
317	O	0.049478	0.846657	0.662144
318	N	0.091408	0.799057	0.682129
319	C	0.329626	0.191295	0.015133
320	C	0.319816	0.156582	0.015112
321	C	0.343546	0.1453	0.015177
322	C	0.378258	0.170203	0.015191
323	C	0.38954	0.205216	0.015182
324	C	0.364638	0.215026	0.015139
325	H	0.395819	0.162611	0.015392
326	H	0.372231	0.240178	0.015306
327	C	0.333757	0.110588	0.015613
328	C	0.424253	0.230139	0.015596
329	H	0.430529	0.254907	0.016901
330	H	0.352247	0.104312	0.017026
331	H	0.33424	0.296599	0.337147
332	O	0.322817	0.344181	0.295171
333	O	0.330864	0.352349	0.364146
334	N	0.311534	0.233528	0.346583
335	H	0.328972	0.045138	0.024002
336	O	0.318125	0.48577	0.065298
337	O	0.325146	0.485365	0.996235
338	C	0.484162	0.242697	0.347165
339	H	0.489713	0.290845	0.023599
340	N	0.449866	0.223308	0.346634
341	C	0.329626	0.191295	0.348467
342	C	0.319816	0.156582	0.348447
343	C	0.343546	0.1453	0.348512
344	C	0.378258	0.170203	0.348525
345	C	0.38954	0.205216	0.348515
346	C	0.364638	0.215026	0.348474
347	H	0.395819	0.162611	0.348724
348	H	0.372231	0.240178	0.348638
349	C	0.333757	0.110588	0.348947
350	C	0.424253	0.230139	0.34893
351	H	0.430529	0.254907	0.350235
352	H	0.352247	0.104312	0.350358
353	H	0.33424	0.296599	0.67048
354	O	0.322817	0.344181	0.628505
355	O	0.330864	0.352349	0.697479
356	N	0.311534	0.233528	0.679916
357	H	0.328972	0.045138	0.357334
358	O	0.318125	0.48577	0.398631
359	O	0.325146	0.485365	0.329567
360	C	0.484162	0.242697	0.680499
361	H	0.489713	0.290845	0.356933
362	N	0.449866	0.223308	0.679967
363	C	0.329626	0.191295	0.6818
364	C	0.319816	0.156582	0.68178
365	C	0.343546	0.1453	0.681845
366	C	0.378258	0.170203	0.681859
367	C	0.38954	0.205216	0.681848
368	C	0.364638	0.215026	0.681807
369	H	0.395819	0.162611	0.682057
370	H	0.372231	0.240178	0.681972
371	C	0.333757	0.110588	0.68228
372	C	0.424253	0.230139	0.682263
373	H	0.430529	0.254907	0.683568
374	H	0.352247	0.104312	0.683692
375	H	0.33424	0.296599	0.003814
376	O	0.322817	0.344181	0.961838
377	O	0.330864	0.352349	0.030812
378	N	0.311534	0.233528	0.013249
379	H	0.328972	0.045138	0.690668
380	O	0.318125	0.48577	0.731964
381	O	0.325146	0.485365	0.662901
382	C	0.484162	0.242697	0.013832
383	H	0.489713	0.290845	0.690267
384	N	0.449866	0.223308	0.013301
385	C	0.329626	0.691295	0.015133
386	C	0.319817	0.656584	0.015112
387	C	0.343546	0.6453	0.015177
388	C	0.378259	0.670203	0.015191
389	C	0.389541	0.705216	0.015182
390	C	0.364639	0.715026	0.01514
391	H	0.395819	0.66261	0.015392
392	H	0.372231	0.740179	0.015306
393	C	0.333757	0.610589	0.015613
394	C	0.424253	0.73014	0.015596
395	H	0.430529	0.754909	0.016901
396	H	0.352248	0.604313	0.017026
397	H	0.334242	0.796601	0.337149
398	O	0.322819	0.844183	0.295173
399	O	0.330864	0.852348	0.364149
400	N	0.311534	0.733528	0.346586
401	H	0.328973	0.54514	0.024002
402	O	0.318126	0.985772	0.065299
403	O	0.325146	0.985364	0.996235
404	C	0.484163	0.742698	0.347165
405	H	0.489713	0.790844	0.0236
406	N	0.449866	0.723307	0.346634
407	C	0.329626	0.691295	0.348467
408	C	0.319817	0.656584	0.348447
409	C	0.343546	0.6453	0.348512
410	C	0.378259	0.670203	0.348525
411	C	0.389541	0.705216	0.348515
412	C	0.364639	0.715026	0.348474
413	H	0.395819	0.66261	0.348724
414	H	0.372231	0.740179	0.348638
415	C	0.333757	0.610589	0.348947
416	C	0.424253	0.73014	0.34893
417	H	0.430529	0.754909	0.350235
418	H	0.352248	0.604313	0.350358
419	H	0.334242	0.796601	0.670484
420	O	0.322819	0.844183	0.628505
421	O	0.330864	0.852348	0.697482
422	N	0.311534	0.733528	0.679919
423	H	0.328973	0.54514	0.357334
424	O	0.318126	0.985772	0.398631
425	O	0.325146	0.985364	0.329568
426	C	0.484163	0.742698	0.680499
427	H	0.489713	0.790844	0.356933
428	N	0.449866	0.723307	0.679967
429	C	0.329626	0.691295	0.6818
430	C	0.319817	0.656584	0.68178
431	C	0.343546	0.6453	0.681845
432	C	0.378259	0.670203	0.681859
433	C	0.389541	0.705216	0.681848
434	C	0.364639	0.715026	0.681807
435	H	0.395819	0.66261	0.682057
436	H	0.372231	0.740179	0.681972
437	C	0.333757	0.610589	0.68228
438	C	0.424253	0.73014	0.682263
439	H	0.430529	0.754909	0.683568
440	H	0.352248	0.604313	0.683692
441	H	0.334242	0.796601	0.003817
442	O	0.322819	0.844183	0.961838
443	O	0.330864	0.852348	0.030815
444	N	0.311534	0.733528	0.013253
445	H	0.328973	0.54514	0.690668
446	O	0.318126	0.985772	0.731964
447	O	0.325146	0.985364	0.662901
448	C	0.484163	0.742698	0.013832
449	H	0.489713	0.790844	0.690267
450	N	0.449866	0.723307	0.013301
451	H	0.49023	0.200603	0.337162
452	H	0.49023	0.200603	0.670494
453	H	0.49023	0.200603	0.003827
454	H	0.49023	0.700603	0.337161
455	H	0.49023	0.700603	0.670494
456	H	0.49023	0.700603	0.003827
457	C	0.502892	0.226192	0.341752
458	C	0.502455	0.278029	0.019311
459	C	0.502892	0.226192	0.675085
460	C	0.502455	0.278029	0.352644
461	C	0.502892	0.226192	0.008418
462	C	0.502455	0.278029	0.685977
463	C	0.502892	0.726192	0.341752
464	C	0.502456	0.778031	0.019312
465	C	0.502892	0.726192	0.675085
466	C	0.502456	0.778031	0.352647
467	C	0.502892	0.726192	0.008418
468	C	0.502456	0.778031	0.685977
469	C	0.652809	0.321167	0.014756
470	H	0.643383	0.361743	0.014517
471	C	0.618708	0.294742	0.014137
472	H	0.614482	0.270703	0.013503
473	C	0.538688	0.243843	0.341532
474	C	0.556974	0.27945	0.014394
475	C	0.538271	0.296352	0.019842
476	N	0.555899	0.22592	0.333848
477	N	0.555971	0.331731	0.026484
478	O	0.549222	0.21203	0.29514
479	O	0.549099	0.339561	0.064621
480	O	0.549366	0.203984	0.364111
481	O	0.549478	0.346655	0.995474
482	N	0.591406	0.299055	0.015462
483	C	0.652809	0.321167	0.34809
484	H	0.643383	0.361743	0.34785
485	C	0.618708	0.294742	0.34747
486	H	0.614482	0.270703	0.346836
487	C	0.538688	0.243843	0.674866
488	C	0.556974	0.27945	0.347727
489	C	0.538271	0.296352	0.353175
490	N	0.555899	0.22592	0.667181
491	N	0.555971	0.331731	0.359818
492	O	0.549222	0.21203	0.628474
493	O	0.549099	0.339561	0.397953
494	O	0.549366	0.203984	0.697445
495	O	0.549478	0.346655	0.328809
496	N	0.591406	0.299055	0.348796
497	C	0.652809	0.321167	0.681424
498	H	0.643383	0.361743	0.681184
499	C	0.618708	0.294742	0.680803
500	H	0.614482	0.270703	0.68017
501	C	0.538688	0.243843	0.008199
502	C	0.556974	0.27945	0.68106
503	C	0.538271	0.296352	0.686508
504	N	0.555899	0.22592	0.000514
505	N	0.555971	0.331731	0.693152
506	O	0.549222	0.21203	0.961808
507	O	0.549099	0.339561	0.731286
508	O	0.549366	0.203984	0.030777
509	O	0.549478	0.346655	0.662141
510	N	0.591406	0.299055	0.682129
511	C	0.65281	0.821167	0.014757
512	H	0.643385	0.861745	0.014518
513	C	0.618708	0.794742	0.014137
514	H	0.614485	0.770705	0.013503
515	C	0.538689	0.743844	0.341532
516	C	0.556975	0.779452	0.014395
517	C	0.538271	0.796352	0.019842
518	N	0.5559	0.72592	0.333848
519	N	0.555971	0.831733	0.026485
520	O	0.549223	0.712031	0.295139
521	O	0.549099	0.83956	0.064622
522	O	0.549367	0.703984	0.364111
523	O	0.549479	0.846657	0.995477
524	N	0.591408	0.799057	0.015462
525	C	0.65281	0.821167	0.34809
526	H	0.643385	0.861745	0.34785
527	C	0.618708	0.794742	0.34747
528	H	0.614485	0.770705	0.346836
529	C	0.538689	0.743844	0.674866
530	C	0.556975	0.779452	0.347727
531	C	0.538271	0.796352	0.353175
532	N	0.5559	0.72592	0.667181
533	N	0.555971	0.831733	0.359818
534	O	0.549223	0.712031	0.628471
535	O	0.549099	0.83956	0.397956
536	O	0.549367	0.703984	0.697445
537	O	0.549479	0.846657	0.32881
538	N	0.591408	0.799057	0.348796
539	C	0.65281	0.821167	0.681424
540	H	0.643385	0.861745	0.681184
541	C	0.618708	0.794742	0.680803
542	H	0.614485	0.770705	0.68017
543	C	0.538689	0.743844	0.008199
544	C	0.556975	0.779452	0.68106
545	C	0.538271	0.796352	0.686508
546	N	0.5559	0.72592	0.000514
547	N	0.555971	0.831733	0.693152
548	O	0.549223	0.712031	0.961804
549	O	0.549099	0.83956	0.731289
550	O	0.549367	0.703984	0.030777
551	O	0.549479	0.846657	0.662144
552	N	0.591408	0.799057	0.682129
553	C	0.713681	0.338616	0.014785
554	C	0.721475	0.372783	0.014822
555	C	0.69623	0.382038	0.01475
556	C	0.662064	0.355666	0.014772
557	C	0.679181	0.313373	0.014815
558	H	0.673104	0.288613	0.014581
559	H	0.746235	0.391466	0.014594
560	C	0.70391	0.41614	0.014102
561	C	0.740104	0.33094	0.014175
562	H	0.764141	0.350751	0.013534
563	H	0.684102	0.42037	0.013397
564	C	0.829625	0.191295	0.015133
565	C	0.819815	0.156582	0.015112
566	C	0.843545	0.1453	0.015177
567	C	0.878259	0.170203	0.015191
568	C	0.889541	0.205216	0.015182
569	C	0.864639	0.215026	0.015139
570	H	0.895818	0.162611	0.015392
571	H	0.87223	0.240178	0.015306
572	H	0.794663	0.139021	0.015275
573	C	0.833756	0.110588	0.015613
574	C	0.924252	0.230139	0.015596
575	C	0.804703	0.201083	0.01553
576	H	0.779933	0.18259	0.016837
577	H	0.930527	0.254907	0.016901
578	H	0.852248	0.104312	0.017026
579	C	0.792145	0.248436	0.347131
580	C	0.808652	0.283673	0.341738
581	C	0.791001	0.301819	0.341541
582	C	0.755395	0.284496	0.014406
583	C	0.738493	0.248891	0.019836
584	H	0.834241	0.296599	0.337147
585	C	0.756813	0.231396	0.019283
586	H	0.743999	0.205837	0.023559
587	N	0.808927	0.336956	0.33388
588	N	0.703114	0.231211	0.026482
589	O	0.822816	0.344181	0.295171
590	O	0.695287	0.216499	0.064611
591	O	0.830864	0.352349	0.364146
592	O	0.688187	0.209803	0.995464
593	N	0.811533	0.233528	0.346583
594	N	0.735791	0.299325	0.015487
595	C	0.78641	0.050679	0.347107
596	C	0.751198	0.031945	0.341446
597	C	0.733057	0.496147	0.341234
598	C	0.750356	0.477867	0.014387
599	C	0.785939	0.496576	0.020085
600	H	0.738288	0.044603	0.33664
601	C	0.803432	0.032391	0.01952
602	H	0.82897	0.045138	0.024002
603	N	0.697963	0.478928	0.333221
604	N	0.803592	0.478883	0.02704
605	O	0.682402	0.485463	0.363241
606	O	0.818124	0.48577	0.065298
607	O	0.690945	0.485597	0.294376
608	O	0.825145	0.485365	0.996235
609	N	0.801318	0.084975	0.346535
610	N	0.735525	0.443436	0.015506
611	C	0.984161	0.242697	0.347165
612	C	0.002893	0.226192	0.341752
613	H	0.990229	0.200603	0.337162
614	C	0.002456	0.278029	0.019311
615	H	0.989712	0.290845	0.023599
616	N	0.949865	0.223308	0.346634
617	C	0.713681	0.338616	0.348118
618	C	0.721475	0.372783	0.348155
619	C	0.69623	0.382038	0.348083
620	C	0.662064	0.355666	0.348104
621	C	0.679181	0.313373	0.348148
622	H	0.673104	0.288613	0.347916
623	H	0.746235	0.391466	0.347926
624	C	0.70391	0.41614	0.347436
625	C	0.740104	0.33094	0.347508
626	H	0.764141	0.350751	0.346867
627	H	0.684102	0.42037	0.34673
628	C	0.829625	0.191295	0.348467
629	C	0.819815	0.156582	0.348447
630	C	0.843545	0.1453	0.348512
631	C	0.878259	0.170203	0.348525
632	C	0.889541	0.205216	0.348515
633	C	0.864639	0.215026	0.348474
634	H	0.895818	0.162611	0.348724
635	H	0.87223	0.240178	0.348638
636	H	0.794663	0.139021	0.348608
637	C	0.833756	0.110588	0.348947
638	C	0.924252	0.230139	0.34893
639	C	0.804703	0.201083	0.348865
640	H	0.779933	0.18259	0.35017
641	H	0.930527	0.254907	0.350235
642	H	0.852248	0.104312	0.350358
643	C	0.792145	0.248436	0.680464
644	C	0.808652	0.283673	0.675071
645	C	0.791001	0.301819	0.674873
646	C	0.755395	0.284496	0.347741
647	C	0.738493	0.248891	0.353168
648	H	0.834241	0.296599	0.67048
649	C	0.756813	0.231396	0.352616
650	H	0.743999	0.205837	0.356892
651	N	0.808927	0.336956	0.667212
652	N	0.703114	0.231211	0.359815
653	O	0.822816	0.344181	0.628505
654	O	0.695287	0.216499	0.397946
655	O	0.830864	0.352349	0.697479
656	O	0.688187	0.209803	0.328798
657	N	0.811533	0.233528	0.679916
658	N	0.735791	0.299325	0.34882
659	C	0.78641	0.050679	0.68044
660	C	0.751198	0.031945	0.67478
661	C	0.733057	0.496147	0.674568
662	C	0.750356	0.477867	0.34772
663	C	0.785939	0.496576	0.353418
664	H	0.738288	0.044603	0.669973
665	C	0.803432	0.032391	0.352853
666	H	0.82897	0.045138	0.357334
667	N	0.697963	0.478928	0.666554
668	N	0.803592	0.478883	0.360373
669	O	0.682402	0.485463	0.696575
670	O	0.818124	0.48577	0.398631
671	O	0.690945	0.485597	0.62771
672	O	0.825145	0.485365	0.329567
673	N	0.801318	0.084975	0.679868
674	N	0.735525	0.443436	0.348841
675	C	0.984161	0.242697	0.680499
676	C	0.002893	0.226192	0.675085
677	H	0.990229	0.200603	0.670494
678	C	0.002456	0.278029	0.352644
679	H	0.989712	0.290845	0.356933
680	N	0.949865	0.223308	0.679967
681	C	0.713681	0.338616	0.681451
682	C	0.721475	0.372783	0.681489
683	C	0.69623	0.382038	0.681417
684	C	0.662064	0.355666	0.681437
685	C	0.679181	0.313373	0.681482
686	H	0.673104	0.288613	0.681249
687	H	0.746235	0.391466	0.681259
688	C	0.70391	0.41614	0.680769
689	C	0.740104	0.33094	0.680841
690	H	0.764141	0.350751	0.6802
691	H	0.684102	0.42037	0.680063
692	C	0.829625	0.191295	0.6818
693	C	0.819815	0.156582	0.68178
694	C	0.843545	0.1453	0.681845
695	C	0.878259	0.170203	0.681859
696	C	0.889541	0.205216	0.681848
697	C	0.864639	0.215026	0.681807
698	H	0.895818	0.162611	0.682057
699	H	0.87223	0.240178	0.681972
700	H	0.794663	0.139021	0.681941
701	C	0.833756	0.110588	0.68228
702	C	0.924252	0.230139	0.682263
703	C	0.804703	0.201083	0.682198
704	H	0.779933	0.18259	0.683503
705	H	0.930527	0.254907	0.683568
706	H	0.852248	0.104312	0.683692
707	C	0.792145	0.248436	0.013798
708	C	0.808652	0.283673	0.008405
709	C	0.791001	0.301819	0.008206
710	C	0.755395	0.284496	0.681074
711	C	0.738493	0.248891	0.686501
712	H	0.834241	0.296599	0.003814
713	C	0.756813	0.231396	0.68595
714	H	0.743999	0.205837	0.690226
715	N	0.808927	0.336956	0.000545
716	N	0.703114	0.231211	0.693148
717	O	0.822816	0.344181	0.961838
718	O	0.695287	0.216499	0.731279
719	O	0.830864	0.352349	0.030812
720	O	0.688187	0.209803	0.66213
721	N	0.811533	0.233528	0.013249
722	N	0.735791	0.299325	0.682153
723	C	0.78641	0.050679	0.013774
724	C	0.751198	0.031945	0.008113
725	C	0.733057	0.496147	0.007901
726	C	0.750356	0.477867	0.681054
727	C	0.785939	0.496576	0.686751
728	H	0.738288	0.044603	0.003306
729	C	0.803432	0.032391	0.686186
730	H	0.82897	0.045138	0.690668
731	N	0.697963	0.478928	0.999887
732	N	0.803592	0.478883	0.693707
733	O	0.682402	0.485463	0.029907
734	O	0.818124	0.48577	0.731964
735	O	0.690945	0.485597	0.961044
736	O	0.825145	0.485365	0.662901
737	N	0.801318	0.084975	0.013201
738	N	0.735525	0.443436	0.682174
739	C	0.984161	0.242697	0.013832
740	C	0.002893	0.226192	0.008418
741	H	0.990229	0.200603	0.003827
742	C	0.002456	0.278029	0.685977
743	H	0.989712	0.290845	0.690267
744	N	0.949865	0.223308	0.013301
745	C	0.713682	0.838618	0.014785
746	C	0.721477	0.872782	0.014822
747	C	0.696232	0.882038	0.014751
748	C	0.662065	0.855668	0.014772
749	C	0.679181	0.813372	0.014815
750	H	0.673104	0.788612	0.014581
751	H	0.746234	0.891465	0.014595
752	C	0.703912	0.916139	0.014102
753	C	0.740105	0.830942	0.014175
754	H	0.764142	0.850753	0.013534
755	H	0.684104	0.920369	0.013397
756	C	0.829627	0.691295	0.015133
757	C	0.819816	0.656584	0.015112
758	C	0.843547	0.6453	0.015177
759	C	0.878259	0.670203	0.015191
760	C	0.889541	0.705216	0.015182
761	C	0.864639	0.715026	0.01514
762	H	0.89582	0.66261	0.015392
763	H	0.87223	0.740179	0.015306
764	H	0.794663	0.639022	0.015274
765	C	0.833756	0.610589	0.015613
766	C	0.924253	0.73014	0.015596
767	C	0.804704	0.701085	0.01553
768	H	0.779933	0.68259	0.016837
769	H	0.930528	0.754909	0.016901
770	H	0.852248	0.604313	0.017026
771	C	0.792147	0.748437	0.347131
772	C	0.808652	0.783672	0.341739
773	C	0.791004	0.801821	0.341542
774	C	0.755396	0.784498	0.014407
775	C	0.738493	0.748891	0.019835
776	H	0.834242	0.796601	0.337149
777	C	0.756813	0.731397	0.019283
778	H	0.743999	0.705838	0.023558
779	N	0.808928	0.836958	0.333882
780	N	0.703114	0.73121	0.026481
781	O	0.822819	0.844183	0.295173
782	O	0.695288	0.7165	0.06461
783	O	0.830864	0.852348	0.364149
784	O	0.688189	0.709804	0.995464
785	N	0.811535	0.733528	0.346586
786	N	0.73579	0.799324	0.015488
787	C	0.786411	0.55068	0.347107
788	C	0.751198	0.531944	0.341446
789	C	0.733058	0.996149	0.341234
790	C	0.750357	0.977869	0.014387
791	C	0.78594	0.996578	0.020085
792	H	0.738289	0.544604	0.33664
793	C	0.803433	0.532393	0.019519
794	H	0.828973	0.54514	0.024002
795	N	0.697964	0.97893	0.333221
796	N	0.803592	0.978882	0.02704
797	O	0.682405	0.985465	0.363241
798	O	0.818127	0.985772	0.065299
799	O	0.690947	0.985599	0.294376
800	O	0.825147	0.985364	0.996235
801	N	0.801318	0.584975	0.346535
802	N	0.735528	0.943438	0.015507
803	C	0.984164	0.742698	0.347165
804	C	0.002893	0.726192	0.341752
805	H	0.990229	0.700603	0.337161
806	C	0.002457	0.778031	0.019312
807	H	0.989712	0.790844	0.0236
808	N	0.949867	0.723307	0.346634
809	C	0.713682	0.838618	0.348118
810	C	0.721477	0.872782	0.348155
811	C	0.696232	0.882038	0.348083
812	C	0.662065	0.855668	0.348104
813	C	0.679181	0.813372	0.348148
814	H	0.673104	0.788612	0.347916
815	H	0.746234	0.891465	0.347929
816	C	0.703912	0.916139	0.347436
817	C	0.740105	0.830942	0.347508
818	H	0.764142	0.850753	0.346867
819	H	0.684104	0.920369	0.34673
820	C	0.829627	0.691295	0.348467
821	C	0.819816	0.656584	0.348447
822	C	0.843547	0.6453	0.348512
823	C	0.878259	0.670203	0.348525
824	C	0.889541	0.705216	0.348515
825	C	0.864639	0.715026	0.348474
826	H	0.89582	0.66261	0.348724
827	H	0.87223	0.740179	0.348638
828	H	0.794663	0.639022	0.348608
829	C	0.833756	0.610589	0.348947
830	C	0.924253	0.73014	0.34893
831	C	0.804704	0.701085	0.348865
832	H	0.779933	0.68259	0.35017
833	H	0.930528	0.754909	0.350235
834	H	0.852248	0.604313	0.350358
835	C	0.792147	0.748437	0.680464
836	C	0.808652	0.783672	0.675071
837	C	0.791004	0.801821	0.674876
838	C	0.755396	0.784498	0.347741
839	C	0.738493	0.748891	0.353168
840	H	0.834242	0.796601	0.670484
841	C	0.756813	0.731397	0.352616
842	H	0.743999	0.705838	0.356892
843	N	0.808928	0.836958	0.667215
844	N	0.703114	0.73121	0.359815
845	O	0.822819	0.844183	0.628505
846	O	0.695288	0.7165	0.397942
847	O	0.830864	0.852348	0.697482
848	O	0.688189	0.709804	0.328796
849	N	0.811535	0.733528	0.679919
850	N	0.73579	0.799324	0.34882
851	C	0.786411	0.55068	0.68044
852	C	0.751198	0.531944	0.67478
853	C	0.733058	0.996149	0.674568
854	C	0.750357	0.977869	0.34772
855	C	0.78594	0.996578	0.353418
856	H	0.738289	0.544604	0.669973
857	C	0.803433	0.532393	0.352853
858	H	0.828973	0.54514	0.357334
859	N	0.697964	0.97893	0.666554
860	N	0.803592	0.978882	0.360373
861	O	0.682405	0.985465	0.696575
862	O	0.818127	0.985772	0.398631
863	O	0.690947	0.985599	0.62771
864	O	0.825147	0.985364	0.329568
865	N	0.801318	0.584975	0.679868
866	N	0.735528	0.943438	0.348841
867	C	0.984164	0.742698	0.680499
868	C	0.002893	0.726192	0.675085
869	H	0.990229	0.700603	0.670494
870	C	0.002457	0.778031	0.352647
871	H	0.989712	0.790844	0.356933
872	N	0.949867	0.723307	0.679967
873	C	0.713682	0.838618	0.681451
874	C	0.721477	0.872782	0.681489
875	C	0.696232	0.882038	0.681417
876	C	0.662065	0.855668	0.681437
877	C	0.679181	0.813372	0.681482
878	H	0.673104	0.788612	0.681249
879	H	0.746234	0.891465	0.681263
880	C	0.703912	0.916139	0.680769
881	C	0.740105	0.830942	0.680841
882	H	0.764142	0.850753	0.6802
883	H	0.684104	0.920369	0.680063
884	C	0.829627	0.691295	0.6818
885	C	0.819816	0.656584	0.68178
886	C	0.843547	0.6453	0.681845
887	C	0.878259	0.670203	0.681859
888	C	0.889541	0.705216	0.681848
889	C	0.864639	0.715026	0.681807
890	H	0.89582	0.66261	0.682057
891	H	0.87223	0.740179	0.681972
892	H	0.794663	0.639022	0.681941
893	C	0.833756	0.610589	0.68228
894	C	0.924253	0.73014	0.682263
895	C	0.804704	0.701085	0.682198
896	H	0.779933	0.68259	0.683503
897	H	0.930528	0.754909	0.683568
898	H	0.852248	0.604313	0.683692
899	C	0.792147	0.748437	0.013798
900	C	0.808652	0.783672	0.008405
901	C	0.791004	0.801821	0.008209
902	C	0.755396	0.784498	0.681074
903	C	0.738493	0.748891	0.686501
904	H	0.834242	0.796601	0.003817
905	C	0.756813	0.731397	0.68595
906	H	0.743999	0.705838	0.690226
907	N	0.808928	0.836958	0.000548
908	N	0.703114	0.73121	0.693148
909	O	0.822819	0.844183	0.961838
910	O	0.695288	0.7165	0.731276
911	O	0.830864	0.852348	0.030815
912	O	0.688189	0.709804	0.66213
913	N	0.811535	0.733528	0.013253
914	N	0.73579	0.799324	0.682153
915	C	0.786411	0.55068	0.013774
916	C	0.751198	0.531944	0.008113
917	C	0.733058	0.996149	0.007901
918	C	0.750357	0.977869	0.681054
919	C	0.78594	0.996578	0.686751
920	H	0.738289	0.544604	0.003306
921	C	0.803433	0.532393	0.686186
922	H	0.828973	0.54514	0.690668
923	N	0.697964	0.97893	0.999887
924	N	0.803592	0.978882	0.693707
925	O	0.682405	0.985465	0.029908
926	O	0.818127	0.985772	0.731964
927	O	0.690947	0.985599	0.961044
928	O	0.825147	0.985364	0.662901
929	N	0.801318	0.584975	0.013201
930	N	0.735528	0.943438	0.682174
931	C	0.984164	0.742698	0.013832
932	C	0.002893	0.726192	0.008418
933	H	0.990229	0.700603	0.003827
934	C	0.002457	0.778031	0.685977
935	H	0.989712	0.790844	0.690267
936	N	0.949867	0.723307	0.013301
