data_C864H504_2018-02-15_10:43:33
#******************************************
#
# CIF file created by Zeo++
# Zeo++ is an open source package to
# analyze microporous materials
#
#*******************************************

_cell_length_a		46.7487   
_cell_length_b		46.7488   
_cell_length_c		29.6286   
_cell_angle_alpha		90   
_cell_angle_beta		90   
_cell_angle_gamma		120   

_symmetry_space_group_name_H-M		'P1'
_symmetry_Int_Tables_number		1
_symmetry_cell_setting		Monoclinic

loop_
_symmetry_equiv_pos_as_xyz
'+x,+y,+z'

loop_
_atom_site_label
_atom_site_type_symbol
_atom_site_fract_x
_atom_site_fract_y
_atom_site_fract_z
1	C	0.027318	0.26521	0.006341
2	C	0.046514	0.300623	0.339719
3	C	0.081465	0.318498	0.339786
4	C	0.098476	0.300793	0.006577
5	C	0.081472	0.266075	0.00647
6	C	0.04652	0.248997	0.00634
7	H	0.035527	0.314677	0.339746
8	H	0.123857	0.313487	0.006683
9	H	0.035535	0.223957	0.006286
10	C	0.146538	0.250338	0.047246
11	C	0.11634	0.250249	0.047367
12	C	0.100626	0.250326	0.00658
13	C	0.116159	0.250059	0.299028
14	C	0.146276	0.249973	0.298933
15	H	0.107668	0.253772	0.268968
16	H	0.108039	0.254189	0.077435
17	H	0.158822	0.254184	0.077265
18	H	0.158478	0.253794	0.26886
19	C	0.11624	0.369282	0.047401
20	C	0.146382	0.399451	0.047372
21	C	0.146395	0.399384	0.299104
22	C	0.116255	0.369205	0.299124
23	C	0.100605	0.353392	0.00663
24	H	0.158645	0.407678	0.269043
25	H	0.158657	0.407814	0.077401
26	H	0.107897	0.357055	0.07747
27	H	0.107909	0.356964	0.269062
28	C	0.027318	0.26521	0.339675
29	C	0.046514	0.300623	0.673052
30	C	0.081465	0.318498	0.673119
31	C	0.098476	0.300793	0.339911
32	C	0.081472	0.266075	0.339803
33	C	0.04652	0.248997	0.339675
34	H	0.035527	0.314677	0.673079
35	H	0.123857	0.313487	0.340016
36	H	0.035535	0.223957	0.339621
37	C	0.146538	0.250338	0.380578
38	C	0.11634	0.250249	0.380699
39	C	0.100626	0.250326	0.339914
40	C	0.116159	0.250059	0.632361
41	C	0.146276	0.249973	0.632267
42	H	0.107668	0.253772	0.602302
43	H	0.108039	0.254189	0.410768
44	H	0.158822	0.254184	0.410599
45	H	0.158478	0.253794	0.602194
46	C	0.11624	0.369282	0.380736
47	C	0.146382	0.399451	0.380706
48	C	0.146395	0.399384	0.632439
49	C	0.116255	0.369205	0.632459
50	C	0.100605	0.353392	0.339962
51	H	0.158645	0.407678	0.602377
52	H	0.158657	0.407814	0.410734
53	H	0.107897	0.357055	0.410805
54	H	0.107909	0.356964	0.602397
55	C	0.027318	0.26521	0.673008
56	C	0.046514	0.300623	0.006385
57	C	0.081465	0.318498	0.006453
58	C	0.098476	0.300793	0.673244
59	C	0.081472	0.266075	0.673136
60	C	0.04652	0.248997	0.673008
61	H	0.035527	0.314677	0.006412
62	H	0.123857	0.313487	0.673349
63	H	0.035535	0.223957	0.672954
64	C	0.146538	0.250338	0.713914
65	C	0.11634	0.250249	0.714036
66	C	0.100626	0.250326	0.673247
67	C	0.116159	0.250059	0.965694
68	C	0.146276	0.249973	0.9656
69	H	0.107668	0.253772	0.935635
70	H	0.108039	0.254189	0.744101
71	H	0.158822	0.254184	0.743932
72	H	0.158478	0.253794	0.935527
73	C	0.11624	0.369282	0.714069
74	C	0.146382	0.399451	0.714039
75	C	0.146395	0.399384	0.965772
76	C	0.116255	0.369205	0.965792
77	C	0.100605	0.353392	0.673298
78	H	0.158645	0.407678	0.93571
79	H	0.158657	0.407814	0.744067
80	H	0.107897	0.357055	0.744138
81	H	0.107909	0.356964	0.93573
82	C	0.027319	0.76521	0.006341
83	C	0.046514	0.800623	0.339719
84	C	0.081466	0.818498	0.339786
85	C	0.098477	0.800793	0.006577
86	C	0.081473	0.766075	0.00647
87	C	0.04652	0.748997	0.00634
88	H	0.035528	0.814677	0.339746
89	H	0.123857	0.813487	0.006683
90	H	0.035536	0.723956	0.006286
91	C	0.146539	0.750338	0.047246
92	C	0.11634	0.750249	0.047367
93	C	0.100626	0.750326	0.00658
94	C	0.116159	0.750059	0.299028
95	C	0.146276	0.74997	0.298933
96	H	0.107668	0.753772	0.268968
97	H	0.108039	0.754187	0.077435
98	H	0.15882	0.754182	0.077265
99	H	0.158479	0.753794	0.26886
100	C	0.11624	0.869279	0.047401
101	C	0.146383	0.899451	0.047372
102	C	0.146393	0.899382	0.299104
103	C	0.116255	0.869205	0.299124
104	C	0.100603	0.85339	0.00663
105	H	0.158647	0.907678	0.269043
106	H	0.158657	0.907814	0.077401
107	H	0.107897	0.857055	0.07747
108	H	0.107909	0.856964	0.269062
109	C	0.027319	0.76521	0.339675
110	C	0.046514	0.800623	0.673052
111	C	0.081466	0.818498	0.673119
112	C	0.098477	0.800793	0.339911
113	C	0.081473	0.766075	0.339803
114	C	0.04652	0.748997	0.339675
115	H	0.035528	0.814677	0.673079
116	H	0.123857	0.813487	0.340016
117	H	0.035536	0.723956	0.339621
118	C	0.146539	0.750338	0.380578
119	C	0.11634	0.750249	0.380699
120	C	0.100626	0.750326	0.339914
121	C	0.116159	0.750059	0.632361
122	C	0.146276	0.74997	0.632267
123	H	0.107668	0.753772	0.602302
124	H	0.108039	0.754187	0.410768
125	H	0.15882	0.754182	0.410599
126	H	0.158479	0.753794	0.602194
127	C	0.11624	0.869279	0.380736
128	C	0.146383	0.899451	0.380706
129	C	0.146393	0.899382	0.632439
130	C	0.116255	0.869205	0.632459
131	C	0.100603	0.85339	0.339962
132	H	0.158647	0.907678	0.602377
133	H	0.158657	0.907814	0.410734
134	H	0.107897	0.857055	0.410805
135	H	0.107909	0.856964	0.602397
136	C	0.027319	0.76521	0.673008
137	C	0.046514	0.800623	0.006385
138	C	0.081466	0.818498	0.006453
139	C	0.098477	0.800793	0.673244
140	C	0.081473	0.766075	0.673136
141	C	0.04652	0.748997	0.673008
142	H	0.035528	0.814677	0.006412
143	H	0.123857	0.813487	0.673349
144	H	0.035536	0.723956	0.672954
145	C	0.146539	0.750338	0.713914
146	C	0.11634	0.750249	0.714036
147	C	0.100626	0.750326	0.673247
148	C	0.116159	0.750059	0.965694
149	C	0.146276	0.74997	0.9656
150	H	0.107668	0.753772	0.935635
151	H	0.108039	0.754187	0.744101
152	H	0.15882	0.754182	0.743932
153	H	0.158479	0.753794	0.935527
154	C	0.11624	0.869279	0.714069
155	C	0.146383	0.899451	0.714039
156	C	0.146393	0.899382	0.965772
157	C	0.116255	0.869205	0.965792
158	C	0.100603	0.85339	0.673298
159	H	0.158647	0.907678	0.93571
160	H	0.158657	0.907814	0.744067
161	H	0.107897	0.857055	0.744138
162	H	0.107909	0.856964	0.93573
163	H	0.227104	0.19783	0.006526
164	C	0.215013	0.248995	0.339624
165	C	0.19714	0.266072	0.339763
166	C	0.214855	0.300788	0.006494
167	H	0.200955	0.223954	0.339489
168	H	0.20217	0.313484	0.006525
169	H	0.22713	0.032434	0.339641
170	C	0.214877	0.417217	0.006464
171	C	0.197168	0.434224	0.006455
172	C	0.21504	0.469174	0.006481
173	H	0.202189	0.391836	0.006507
174	H	0.200983	0.480158	0.006548
175	C	0.162247	0.250341	0.006367
176	C	0.162286	0.415071	0.006567
177	H	0.227104	0.19783	0.33986
178	C	0.215013	0.248995	0.672957
179	C	0.19714	0.266072	0.673095
180	C	0.214855	0.300788	0.339827
181	H	0.200955	0.223954	0.672822
182	H	0.20217	0.313484	0.33986
183	H	0.22713	0.032434	0.672974
184	C	0.214877	0.417217	0.339796
185	C	0.197168	0.434224	0.33979
186	C	0.21504	0.469174	0.339813
187	H	0.202189	0.391836	0.33984
188	H	0.200983	0.480158	0.339881
189	C	0.162247	0.250341	0.339702
190	C	0.162286	0.415071	0.339901
191	H	0.227104	0.19783	0.673193
192	C	0.215013	0.248995	0.006291
193	C	0.19714	0.266072	0.006428
194	C	0.214855	0.300788	0.67316
195	H	0.200955	0.223954	0.006155
196	H	0.20217	0.313484	0.673193
197	H	0.22713	0.032434	0.006307
198	C	0.214877	0.417217	0.673133
199	C	0.197168	0.434224	0.673122
200	C	0.21504	0.469174	0.673149
201	H	0.202189	0.391836	0.673173
202	H	0.200983	0.480158	0.673214
203	C	0.162247	0.250341	0.673035
204	C	0.162286	0.415071	0.673234
205	H	0.227103	0.697828	0.006526
206	C	0.215014	0.748995	0.339624
207	C	0.19714	0.766072	0.339763
208	C	0.214855	0.800788	0.006494
209	H	0.200956	0.723954	0.339489
210	H	0.20217	0.813484	0.006525
211	H	0.227131	0.532434	0.339641
212	C	0.214879	0.917218	0.006464
213	C	0.197169	0.934224	0.006455
214	C	0.215041	0.969174	0.006481
215	H	0.20219	0.891836	0.006507
216	H	0.200983	0.980158	0.006548
217	C	0.162247	0.750341	0.006367
218	C	0.162286	0.915071	0.006567
219	H	0.227103	0.697828	0.33986
220	C	0.215014	0.748995	0.672957
221	C	0.19714	0.766072	0.673095
222	C	0.214855	0.800788	0.339827
223	H	0.200956	0.723954	0.672822
224	H	0.20217	0.813484	0.33986
225	H	0.227131	0.532434	0.672974
226	C	0.214879	0.917218	0.339796
227	C	0.197169	0.934224	0.33979
228	C	0.215041	0.969174	0.339813
229	H	0.20219	0.891836	0.33984
230	H	0.200983	0.980158	0.339881
231	C	0.162247	0.750341	0.339702
232	C	0.162286	0.915071	0.339901
233	H	0.227103	0.697828	0.673193
234	C	0.215014	0.748995	0.006291
235	C	0.19714	0.766072	0.006428
236	C	0.214855	0.800788	0.67316
237	H	0.200956	0.723954	0.006155
238	H	0.20217	0.813484	0.673193
239	H	0.227131	0.532434	0.006307
240	C	0.214879	0.917218	0.673133
241	C	0.197169	0.934224	0.673122
242	C	0.215041	0.969174	0.673149
243	H	0.20219	0.891836	0.673173
244	H	0.200983	0.980158	0.673214
245	C	0.162247	0.750341	0.673035
246	C	0.162286	0.915071	0.673234
247	C	0.268363	0.247293	0.006374
248	C	0.252145	0.211883	0.006471
249	C	0.269219	0.194011	0.006577
250	C	0.250429	0.265208	0.006373
251	C	0.249571	0.318489	0.006503
252	C	0.266647	0.300618	0.006496
253	H	0.291688	0.314672	0.006602
254	C	0.268387	0.024221	0.006442
255	C	0.269253	0.078365	0.339732
256	C	0.252171	0.043418	0.339702
257	C	0.250455	0.488374	0.006442
258	C	0.266672	0.469179	0.339749
259	C	0.249593	0.434231	0.339752
260	H	0.291712	0.480161	0.339715
261	C	0.265597	0.399456	0.04733
262	C	0.265597	0.369302	0.047354
263	C	0.265319	0.35337	0.006586
264	C	0.265467	0.369223	0.299124
265	C	0.265561	0.399424	0.299073
266	C	0.265336	0.415093	0.006535
267	H	0.261654	0.357013	0.26905
268	H	0.261679	0.357045	0.077401
269	H	0.261672	0.407809	0.07736
270	H	0.261655	0.407765	0.269017
271	C	0.25343	0.113198	0.047278
272	C	0.253321	0.143295	0.04743
273	C	0.253449	0.159112	0.006653
274	C	0.253228	0.143345	0.299097
275	C	0.253175	0.113163	0.299008
276	C	0.253516	0.097507	0.006423
277	H	0.256965	0.155565	0.269045
278	H	0.257227	0.155512	0.077511
279	H	0.257258	0.104751	0.0773
280	H	0.257022	0.10481	0.268926
281	C	0.268363	0.247293	0.339709
282	C	0.252145	0.211883	0.339806
283	C	0.269219	0.194011	0.339911
284	C	0.250429	0.265208	0.339705
285	C	0.249571	0.318489	0.339837
286	C	0.266647	0.300618	0.33983
287	H	0.291688	0.314672	0.339935
288	C	0.268387	0.024221	0.339776
289	C	0.269253	0.078365	0.673065
290	C	0.252171	0.043418	0.673035
291	C	0.250455	0.488374	0.339776
292	C	0.266672	0.469179	0.673082
293	C	0.249593	0.434231	0.673089
294	H	0.291712	0.480161	0.673048
295	C	0.265597	0.399456	0.380662
296	C	0.265597	0.369302	0.380686
297	C	0.265319	0.35337	0.339918
298	C	0.265467	0.369223	0.632459
299	C	0.265561	0.399424	0.632405
300	C	0.265336	0.415093	0.339867
301	H	0.261654	0.357013	0.602383
302	H	0.261679	0.357045	0.410734
303	H	0.261672	0.407809	0.410694
304	H	0.261655	0.407765	0.60235
305	C	0.25343	0.113198	0.380612
306	C	0.253321	0.143295	0.380763
307	C	0.253449	0.159112	0.339985
308	C	0.253228	0.143345	0.632432
309	C	0.253175	0.113163	0.632341
310	C	0.253516	0.097507	0.339756
311	H	0.256965	0.155565	0.60238
312	H	0.257227	0.155512	0.410846
313	H	0.257258	0.104751	0.410633
314	H	0.257022	0.10481	0.602259
315	C	0.268363	0.247293	0.673041
316	C	0.252145	0.211883	0.673139
317	C	0.269219	0.194011	0.673244
318	C	0.250429	0.265208	0.673041
319	C	0.249571	0.318489	0.67317
320	C	0.266647	0.300618	0.673163
321	H	0.291688	0.314672	0.673271
322	C	0.268387	0.024221	0.673109
323	C	0.269253	0.078365	0.006397
324	C	0.252171	0.043418	0.006369
325	C	0.250455	0.488374	0.673109
326	C	0.266672	0.469179	0.006414
327	C	0.249593	0.434231	0.00642
328	H	0.291712	0.480161	0.006382
329	C	0.265597	0.399456	0.713998
330	C	0.265597	0.369302	0.714022
331	C	0.265319	0.35337	0.673254
332	C	0.265467	0.369223	0.965792
333	C	0.265561	0.399424	0.965741
334	C	0.265336	0.415093	0.673203
335	H	0.261654	0.357013	0.935716
336	H	0.261679	0.357045	0.744067
337	H	0.261672	0.407809	0.744027
338	H	0.261655	0.407765	0.935686
339	C	0.25343	0.113198	0.713944
340	C	0.253321	0.143295	0.714096
341	C	0.253449	0.159112	0.673322
342	C	0.253228	0.143345	0.965765
343	C	0.253175	0.113163	0.965674
344	C	0.253516	0.097507	0.673089
345	H	0.256965	0.155565	0.935713
346	H	0.257227	0.155512	0.744179
347	H	0.257258	0.104751	0.743966
348	H	0.257022	0.10481	0.935595
349	C	0.268363	0.747293	0.006374
350	C	0.252145	0.711883	0.006471
351	C	0.269219	0.69401	0.006577
352	C	0.250429	0.765208	0.006373
353	C	0.249572	0.818489	0.006503
354	C	0.266648	0.800618	0.006496
355	H	0.291689	0.814672	0.006602
356	C	0.268387	0.524221	0.006442
357	C	0.269253	0.578364	0.339732
358	C	0.252172	0.543418	0.339702
359	C	0.250454	0.988371	0.006442
360	C	0.266671	0.969177	0.339749
361	C	0.249594	0.934231	0.339752
362	H	0.291712	0.980161	0.339715
363	C	0.265597	0.899456	0.04733
364	C	0.265597	0.869302	0.047354
365	C	0.265319	0.85337	0.006586
366	C	0.265467	0.869223	0.299124
367	C	0.26556	0.899421	0.299073
368	C	0.265336	0.915093	0.006535
369	H	0.261655	0.857013	0.26905
370	H	0.261679	0.857045	0.077401
371	H	0.261673	0.907809	0.07736
372	H	0.261656	0.907765	0.269017
373	C	0.253431	0.613198	0.047278
374	C	0.253322	0.643295	0.04743
375	C	0.253449	0.659111	0.006653
376	C	0.253228	0.643345	0.299097
377	C	0.253176	0.613164	0.299008
378	C	0.253516	0.597506	0.006423
379	H	0.256966	0.655564	0.269045
380	H	0.257227	0.655512	0.077511
381	H	0.257258	0.604751	0.0773
382	H	0.257023	0.60481	0.268926
383	C	0.268363	0.747293	0.339709
384	C	0.252145	0.711883	0.339806
385	C	0.269219	0.69401	0.339911
386	C	0.250429	0.765208	0.339705
387	C	0.249572	0.818489	0.339837
388	C	0.266648	0.800618	0.33983
389	H	0.291689	0.814672	0.339935
390	C	0.268387	0.524221	0.339776
391	C	0.269253	0.578364	0.673065
392	C	0.252172	0.543418	0.673035
393	C	0.250454	0.988371	0.339776
394	C	0.266671	0.969177	0.673082
395	C	0.249594	0.934231	0.673089
396	H	0.291712	0.980161	0.673048
397	C	0.265597	0.899456	0.380662
398	C	0.265597	0.869302	0.380686
399	C	0.265319	0.85337	0.339918
400	C	0.265467	0.869223	0.632459
401	C	0.26556	0.899421	0.632405
402	C	0.265336	0.915093	0.339867
403	H	0.261655	0.857013	0.602383
404	H	0.261679	0.857045	0.410734
405	H	0.261673	0.907809	0.410694
406	H	0.261656	0.907765	0.60235
407	C	0.253431	0.613198	0.380612
408	C	0.253322	0.643295	0.380763
409	C	0.253449	0.659111	0.339985
410	C	0.253228	0.643345	0.632432
411	C	0.253176	0.613164	0.632341
412	C	0.253516	0.597506	0.339756
413	H	0.256966	0.655564	0.60238
414	H	0.257227	0.655512	0.410846
415	H	0.257258	0.604751	0.410633
416	H	0.257023	0.60481	0.602259
417	C	0.268363	0.747293	0.673041
418	C	0.252145	0.711883	0.673139
419	C	0.269219	0.69401	0.673244
420	C	0.250429	0.765208	0.673041
421	C	0.249572	0.818489	0.67317
422	C	0.266648	0.800618	0.673163
423	H	0.291689	0.814672	0.673271
424	C	0.268387	0.524221	0.673109
425	C	0.269253	0.578364	0.006397
426	C	0.252172	0.543418	0.006369
427	C	0.250454	0.988371	0.673109
428	C	0.266671	0.969177	0.006414
429	C	0.249594	0.934231	0.00642
430	H	0.291712	0.980161	0.006382
431	C	0.265597	0.899456	0.713998
432	C	0.265597	0.869302	0.714022
433	C	0.265319	0.85337	0.673254
434	C	0.265467	0.869223	0.965792
435	C	0.26556	0.899421	0.965741
436	C	0.265336	0.915093	0.673203
437	H	0.261655	0.857013	0.935716
438	H	0.261679	0.857045	0.744067
439	H	0.261673	0.907809	0.744027
440	H	0.261656	0.907765	0.935686
441	C	0.253431	0.613198	0.713944
442	C	0.253322	0.643295	0.714096
443	C	0.253449	0.659111	0.673322
444	C	0.253228	0.643345	0.965765
445	C	0.253176	0.613164	0.965674
446	C	0.253516	0.597506	0.673089
447	H	0.256966	0.655564	0.935713
448	H	0.257227	0.655512	0.744179
449	H	0.257258	0.604751	0.743966
450	H	0.257023	0.60481	0.935595
451	C	0.491466	0.247288	0.006354
452	C	0.472265	0.263501	0.006311
453	C	0.437313	0.246423	0.006504
454	C	0.420307	0.211706	0.006602
455	C	0.437318	0.194	0.33986
456	C	0.472268	0.211874	0.339783
457	H	0.48325	0.288542	0.006179
458	H	0.483257	0.19782	0.339817
459	H	0.394927	0.199014	0.006674
460	C	0.303937	0.211713	0.006637
461	C	0.321653	0.24643	0.33983
462	C	0.303778	0.263506	0.339638
463	H	0.317836	0.288547	0.339479
464	H	0.316621	0.199017	0.006709
465	C	0.3038	0.043417	0.006524
466	C	0.321677	0.078367	0.00645
467	C	0.303971	0.095376	0.00641
468	H	0.317856	0.032431	0.006626
469	H	0.316661	0.120756	0.006422
470	C	0.372278	0.262177	0.047306
471	C	0.402442	0.26219	0.047279
472	C	0.418156	0.26216	0.006418
473	C	0.402596	0.262545	0.298955
474	C	0.372424	0.262516	0.29897
475	C	0.356556	0.262177	0.006471
476	H	0.411068	0.25883	0.268888
477	H	0.410755	0.258173	0.077285
478	H	0.359995	0.258193	0.077348
479	H	0.360251	0.258862	0.268899
480	C	0.402543	0.143199	0.047459
481	C	0.372401	0.113028	0.047429
482	C	0.35658	0.09751	0.00656
483	C	0.372361	0.113208	0.29908
484	C	0.402561	0.143318	0.299121
485	C	0.418169	0.159108	0.006674
486	H	0.360149	0.104836	0.269003
487	H	0.360103	0.104633	0.077439
488	H	0.410887	0.155461	0.0775
489	H	0.410933	0.155617	0.269105
490	C	0.491466	0.247288	0.339688
491	C	0.472265	0.263501	0.339644
492	C	0.437313	0.246423	0.339837
493	C	0.420307	0.211706	0.339935
494	C	0.437318	0.194	0.673193
495	C	0.472268	0.211874	0.673116
496	H	0.48325	0.288542	0.339513
497	H	0.483257	0.19782	0.673149
498	H	0.394927	0.199014	0.340009
499	C	0.303937	0.211713	0.339972
500	C	0.321653	0.24643	0.673163
501	C	0.303778	0.263506	0.672974
502	H	0.317836	0.288547	0.672812
503	H	0.316621	0.199017	0.340043
504	C	0.3038	0.043417	0.339857
505	C	0.321677	0.078367	0.339783
506	C	0.303971	0.095376	0.339746
507	H	0.317856	0.032431	0.339958
508	H	0.316661	0.120756	0.339756
509	C	0.372278	0.262177	0.380639
510	C	0.402442	0.26219	0.380612
511	C	0.418156	0.26216	0.339752
512	C	0.402596	0.262545	0.632287
513	C	0.372424	0.262516	0.632304
514	C	0.356556	0.262177	0.339803
515	H	0.411068	0.25883	0.602221
516	H	0.410755	0.258173	0.41062
517	H	0.359995	0.258193	0.41068
518	H	0.360251	0.258862	0.602232
519	C	0.402543	0.143199	0.380794
520	C	0.372401	0.113028	0.380763
521	C	0.35658	0.09751	0.339894
522	C	0.372361	0.113208	0.632412
523	C	0.402561	0.143318	0.632456
524	C	0.418169	0.159108	0.340009
525	H	0.360149	0.104836	0.602336
526	H	0.360103	0.104633	0.410772
527	H	0.410887	0.155461	0.410832
528	H	0.410933	0.155617	0.602437
529	C	0.491466	0.247288	0.673021
530	C	0.472265	0.263501	0.672977
531	C	0.437313	0.246423	0.67317
532	C	0.420307	0.211706	0.673271
533	C	0.437318	0.194	0.006527
534	C	0.472268	0.211874	0.006448
535	H	0.48325	0.288542	0.672846
536	H	0.483257	0.19782	0.006482
537	H	0.394927	0.199014	0.673342
538	C	0.303937	0.211713	0.673305
539	C	0.321653	0.24643	0.006495
540	C	0.303778	0.263506	0.006305
541	H	0.317836	0.288547	0.006145
542	H	0.316621	0.199017	0.673376
543	C	0.3038	0.043417	0.67319
544	C	0.321677	0.078367	0.673119
545	C	0.303971	0.095376	0.673079
546	H	0.317856	0.032431	0.673295
547	H	0.316661	0.120756	0.673089
548	C	0.372278	0.262177	0.713971
549	C	0.402442	0.26219	0.713948
550	C	0.418156	0.26216	0.673085
551	C	0.402596	0.262545	0.965623
552	C	0.372424	0.262516	0.965637
553	C	0.356556	0.262177	0.673139
554	H	0.411068	0.25883	0.935554
555	H	0.410755	0.258173	0.743953
556	H	0.359995	0.258193	0.744017
557	H	0.360251	0.258862	0.935568
558	C	0.402543	0.143199	0.714127
559	C	0.372401	0.113028	0.714096
560	C	0.35658	0.09751	0.673227
561	C	0.372361	0.113208	0.965748
562	C	0.402561	0.143318	0.965789
563	C	0.418169	0.159108	0.673342
564	H	0.360149	0.104836	0.935669
565	H	0.360103	0.104633	0.744108
566	H	0.410887	0.155461	0.744169
567	H	0.410933	0.155617	0.935774
568	C	0.491468	0.747288	0.006354
569	C	0.472266	0.763501	0.006311
570	C	0.437314	0.746423	0.006504
571	C	0.420308	0.711705	0.006602
572	C	0.437319	0.694	0.33986
573	C	0.472269	0.711873	0.339783
574	H	0.48325	0.788542	0.006179
575	H	0.483256	0.697819	0.339817
576	H	0.394928	0.699014	0.006674
577	C	0.303937	0.711712	0.006637
578	C	0.321654	0.746431	0.33983
579	C	0.303779	0.763506	0.339638
580	H	0.317836	0.788547	0.339479
581	H	0.316621	0.699016	0.006709
582	C	0.303802	0.543418	0.006524
583	C	0.321678	0.578366	0.00645
584	C	0.30397	0.595375	0.00641
585	H	0.317856	0.532431	0.006626
586	H	0.316663	0.620757	0.006422
587	C	0.372279	0.762177	0.047306
588	C	0.402441	0.762187	0.047279
589	C	0.418157	0.76216	0.006418
590	C	0.402596	0.762545	0.298955
591	C	0.372424	0.762513	0.29897
592	C	0.356556	0.762177	0.006471
593	H	0.411069	0.75883	0.268888
594	H	0.410754	0.758171	0.077285
595	H	0.359996	0.758193	0.077348
596	H	0.36025	0.758862	0.268899
597	C	0.402545	0.643199	0.047459
598	C	0.3724	0.613028	0.047429
599	C	0.356579	0.597509	0.00656
600	C	0.372362	0.613208	0.29908
601	C	0.402561	0.643318	0.299121
602	C	0.418171	0.659108	0.006674
603	H	0.360148	0.604835	0.269003
604	H	0.360104	0.604632	0.077439
605	H	0.410886	0.65546	0.0775
606	H	0.410933	0.655616	0.269105
607	C	0.491468	0.747288	0.339688
608	C	0.472266	0.763501	0.339644
609	C	0.437314	0.746423	0.339837
610	C	0.420308	0.711705	0.339935
611	C	0.437319	0.694	0.673193
612	C	0.472269	0.711873	0.673116
613	H	0.48325	0.788542	0.339513
614	H	0.483256	0.697819	0.673149
615	H	0.394928	0.699014	0.340009
616	C	0.303937	0.711712	0.339972
617	C	0.321654	0.746431	0.673163
618	C	0.303779	0.763506	0.672974
619	H	0.317836	0.788547	0.672812
620	H	0.316621	0.699016	0.340043
621	C	0.303802	0.543418	0.339857
622	C	0.321678	0.578366	0.339783
623	C	0.30397	0.595375	0.339746
624	H	0.317856	0.532431	0.339958
625	H	0.316663	0.620757	0.339756
626	C	0.372279	0.762177	0.380639
627	C	0.402441	0.762187	0.380612
628	C	0.418157	0.76216	0.339752
629	C	0.402596	0.762545	0.632287
630	C	0.372424	0.762513	0.632304
631	C	0.356556	0.762177	0.339803
632	H	0.411069	0.75883	0.602221
633	H	0.410754	0.758171	0.41062
634	H	0.359996	0.758193	0.41068
635	H	0.36025	0.758862	0.602232
636	C	0.402545	0.643199	0.380794
637	C	0.3724	0.613028	0.380763
638	C	0.356579	0.597509	0.339894
639	C	0.372362	0.613208	0.632412
640	C	0.402561	0.643318	0.632456
641	C	0.418171	0.659108	0.340009
642	H	0.360148	0.604835	0.602336
643	H	0.360104	0.604632	0.410772
644	H	0.410886	0.65546	0.410832
645	H	0.410933	0.655616	0.602437
646	C	0.491468	0.747288	0.673021
647	C	0.472266	0.763501	0.672977
648	C	0.437314	0.746423	0.67317
649	C	0.420308	0.711705	0.673271
650	C	0.437319	0.694	0.006527
651	C	0.472269	0.711873	0.006448
652	H	0.48325	0.788542	0.672846
653	H	0.483256	0.697819	0.006482
654	H	0.394928	0.699014	0.673342
655	C	0.303937	0.711712	0.673305
656	C	0.321654	0.746431	0.006495
657	C	0.303779	0.763506	0.006305
658	H	0.317836	0.788547	0.006145
659	H	0.316621	0.699016	0.673376
660	C	0.303802	0.543418	0.67319
661	C	0.321678	0.578366	0.673119
662	C	0.30397	0.595375	0.673079
663	H	0.317856	0.532431	0.673295
664	H	0.316663	0.620757	0.673089
665	C	0.372279	0.762177	0.713971
666	C	0.402441	0.762187	0.713948
667	C	0.418157	0.76216	0.673085
668	C	0.402596	0.762545	0.965623
669	C	0.372424	0.762513	0.965637
670	C	0.356556	0.762177	0.673139
671	H	0.411069	0.75883	0.935554
672	H	0.410754	0.758171	0.743953
673	H	0.359996	0.758193	0.744017
674	H	0.36025	0.758862	0.935568
675	C	0.402545	0.643199	0.714127
676	C	0.3724	0.613028	0.714096
677	C	0.356579	0.597509	0.673227
678	C	0.372362	0.613208	0.965748
679	C	0.402561	0.643318	0.965789
680	C	0.418171	0.659108	0.673342
681	H	0.360148	0.604835	0.935669
682	H	0.360104	0.604632	0.744108
683	H	0.410886	0.65546	0.744169
684	H	0.410933	0.655616	0.935774
685	C	0.991467	0.247288	0.006354
686	C	0.972264	0.263501	0.006311
687	C	0.937314	0.246423	0.006504
688	C	0.920308	0.211706	0.006602
689	C	0.937319	0.194	0.33986
690	C	0.972269	0.211874	0.339783
691	H	0.983249	0.288542	0.006179
692	H	0.983256	0.19782	0.339817
693	H	0.894928	0.199014	0.006674
694	C	0.527318	0.26521	0.006341
695	C	0.546515	0.300623	0.339719
696	C	0.581465	0.318498	0.339786
697	C	0.598476	0.300793	0.006577
698	C	0.581472	0.266075	0.00647
699	C	0.546521	0.248997	0.00634
700	H	0.535527	0.314677	0.339746
701	H	0.623856	0.313487	0.006683
702	H	0.535535	0.223957	0.006286
703	C	0.768362	0.247293	0.006374
704	C	0.752144	0.211883	0.006471
705	C	0.769219	0.194011	0.006577
706	C	0.803936	0.211713	0.006637
707	C	0.821654	0.24643	0.33983
708	C	0.803778	0.263506	0.339638
709	H	0.727104	0.19783	0.006526
710	H	0.817835	0.288547	0.339479
711	H	0.816622	0.199017	0.006709
712	C	0.750429	0.265208	0.006373
713	C	0.715012	0.248995	0.339624
714	C	0.69714	0.266072	0.339763
715	C	0.714855	0.300788	0.006494
716	C	0.749571	0.318489	0.006503
717	C	0.766647	0.300618	0.006496
718	H	0.700956	0.223954	0.339489
719	H	0.702169	0.313484	0.006525
720	H	0.791688	0.314672	0.006602
721	C	0.768386	0.024221	0.006442
722	C	0.803801	0.043417	0.006524
723	C	0.821678	0.078367	0.00645
724	C	0.80397	0.095376	0.00641
725	C	0.769254	0.078365	0.339732
726	C	0.752172	0.043418	0.339702
727	H	0.817855	0.032431	0.006626
728	H	0.727131	0.032434	0.339641
729	H	0.816662	0.120756	0.006422
730	C	0.750456	0.488374	0.006442
731	C	0.766671	0.469179	0.339749
732	C	0.749593	0.434231	0.339752
733	C	0.714878	0.417217	0.006464
734	C	0.697168	0.434224	0.006455
735	C	0.715039	0.469174	0.006481
736	H	0.791711	0.480161	0.339715
737	H	0.702189	0.391836	0.006507
738	H	0.700982	0.480158	0.006548
739	C	0.646538	0.250338	0.047246
740	C	0.616339	0.250249	0.047367
741	C	0.600627	0.250326	0.00658
742	C	0.61616	0.250059	0.299028
743	C	0.646276	0.249973	0.298933
744	C	0.662247	0.250341	0.006367
745	H	0.607667	0.253772	0.268968
746	H	0.608039	0.254189	0.077435
747	H	0.658823	0.254184	0.077265
748	H	0.658478	0.253794	0.26886
749	C	0.765596	0.399456	0.04733
750	C	0.765596	0.369302	0.047354
751	C	0.765318	0.35337	0.006586
752	C	0.765466	0.369223	0.299124
753	C	0.765561	0.399424	0.299073
754	C	0.765336	0.415093	0.006535
755	H	0.761655	0.357013	0.26905
756	H	0.761679	0.357045	0.077401
757	H	0.761672	0.407809	0.07736
758	H	0.761654	0.407765	0.269017
759	C	0.616241	0.369282	0.047401
760	C	0.646382	0.399451	0.047372
761	C	0.662287	0.415071	0.006567
762	C	0.646396	0.399384	0.299104
763	C	0.616256	0.369205	0.299124
764	C	0.600606	0.353392	0.00663
765	H	0.658646	0.407678	0.269043
766	H	0.658658	0.407814	0.077401
767	H	0.607896	0.357055	0.07747
768	H	0.607908	0.356964	0.269062
769	C	0.872277	0.262177	0.047306
770	C	0.902441	0.26219	0.047279
771	C	0.918157	0.26216	0.006418
772	C	0.902595	0.262545	0.298955
773	C	0.872425	0.262516	0.29897
774	C	0.856555	0.262177	0.006471
775	H	0.911069	0.25883	0.268888
776	H	0.910756	0.258173	0.077285
777	H	0.859996	0.258193	0.077348
778	H	0.86025	0.258862	0.268899
779	C	0.753431	0.113198	0.047278
780	C	0.753322	0.143295	0.04743
781	C	0.753449	0.159112	0.006653
782	C	0.753228	0.143345	0.299097
783	C	0.753176	0.113163	0.299008
784	C	0.753516	0.097507	0.006423
785	H	0.756965	0.155565	0.269045
786	H	0.757227	0.155512	0.077511
787	H	0.757257	0.104751	0.0773
788	H	0.757022	0.10481	0.268926
789	C	0.902544	0.143199	0.047459
790	C	0.8724	0.113028	0.047429
791	C	0.856579	0.09751	0.00656
792	C	0.872362	0.113208	0.29908
793	C	0.902559	0.143318	0.299121
794	C	0.91817	0.159108	0.006674
795	H	0.860148	0.104836	0.269003
796	H	0.860104	0.104633	0.077439
797	H	0.910885	0.155461	0.0775
798	H	0.910934	0.155617	0.269105
799	C	0.991467	0.247288	0.339688
800	C	0.972264	0.263501	0.339644
801	C	0.937314	0.246423	0.339837
802	C	0.920308	0.211706	0.339935
803	C	0.937319	0.194	0.673193
804	C	0.972269	0.211874	0.673116
805	H	0.983249	0.288542	0.339513
806	H	0.983256	0.19782	0.673149
807	H	0.894928	0.199014	0.340009
808	C	0.527318	0.26521	0.339675
809	C	0.546515	0.300623	0.673052
810	C	0.581465	0.318498	0.673119
811	C	0.598476	0.300793	0.339911
812	C	0.581472	0.266075	0.339803
813	C	0.546521	0.248997	0.339675
814	H	0.535527	0.314677	0.673079
815	H	0.623856	0.313487	0.340016
816	H	0.535535	0.223957	0.339621
817	C	0.768362	0.247293	0.339709
818	C	0.752144	0.211883	0.339806
819	C	0.769219	0.194011	0.339911
820	C	0.803936	0.211713	0.339972
821	C	0.821654	0.24643	0.673163
822	C	0.803778	0.263506	0.672974
823	H	0.727104	0.19783	0.33986
824	H	0.817835	0.288547	0.672812
825	H	0.816622	0.199017	0.340043
826	C	0.750429	0.265208	0.339705
827	C	0.715012	0.248995	0.672957
828	C	0.69714	0.266072	0.673095
829	C	0.714855	0.300788	0.339827
830	C	0.749571	0.318489	0.339837
831	C	0.766647	0.300618	0.33983
832	H	0.700956	0.223954	0.672822
833	H	0.702169	0.313484	0.33986
834	H	0.791688	0.314672	0.339935
835	C	0.768386	0.024221	0.339776
836	C	0.803801	0.043417	0.339857
837	C	0.821678	0.078367	0.339783
838	C	0.80397	0.095376	0.339746
839	C	0.769254	0.078365	0.673065
840	C	0.752172	0.043418	0.673035
841	H	0.817855	0.032431	0.339958
842	H	0.727131	0.032434	0.672974
843	H	0.816662	0.120756	0.339756
844	C	0.750456	0.488374	0.339776
845	C	0.766671	0.469179	0.673082
846	C	0.749593	0.434231	0.673089
847	C	0.714878	0.417217	0.339796
848	C	0.697168	0.434224	0.33979
849	C	0.715039	0.469174	0.339813
850	H	0.791711	0.480161	0.673048
851	H	0.702189	0.391836	0.33984
852	H	0.700982	0.480158	0.339881
853	C	0.646538	0.250338	0.380578
854	C	0.616339	0.250249	0.380699
855	C	0.600627	0.250326	0.339914
856	C	0.61616	0.250059	0.632361
857	C	0.646276	0.249973	0.632267
858	C	0.662247	0.250341	0.339702
859	H	0.607667	0.253772	0.602302
860	H	0.608039	0.254189	0.410768
861	H	0.658823	0.254184	0.410599
862	H	0.658478	0.253794	0.602194
863	C	0.765596	0.399456	0.380662
864	C	0.765596	0.369302	0.380686
865	C	0.765318	0.35337	0.339918
866	C	0.765466	0.369223	0.632459
867	C	0.765561	0.399424	0.632405
868	C	0.765336	0.415093	0.339867
869	H	0.761655	0.357013	0.602383
870	H	0.761679	0.357045	0.410734
871	H	0.761672	0.407809	0.410694
872	H	0.761654	0.407765	0.60235
873	C	0.616241	0.369282	0.380736
874	C	0.646382	0.399451	0.380706
875	C	0.662287	0.415071	0.339901
876	C	0.646396	0.399384	0.632439
877	C	0.616256	0.369205	0.632459
878	C	0.600606	0.353392	0.339962
879	H	0.658646	0.407678	0.602377
880	H	0.658658	0.407814	0.410734
881	H	0.607896	0.357055	0.410805
882	H	0.607908	0.356964	0.602397
883	C	0.872277	0.262177	0.380639
884	C	0.902441	0.26219	0.380612
885	C	0.918157	0.26216	0.339752
886	C	0.902595	0.262545	0.632287
887	C	0.872425	0.262516	0.632304
888	C	0.856555	0.262177	0.339803
889	H	0.911069	0.25883	0.602221
890	H	0.910756	0.258173	0.41062
891	H	0.859996	0.258193	0.41068
892	H	0.86025	0.258862	0.602232
893	C	0.753431	0.113198	0.380612
894	C	0.753322	0.143295	0.380763
895	C	0.753449	0.159112	0.339985
896	C	0.753228	0.143345	0.632432
897	C	0.753176	0.113163	0.632341
898	C	0.753516	0.097507	0.339756
899	H	0.756965	0.155565	0.60238
900	H	0.757227	0.155512	0.410846
901	H	0.757257	0.104751	0.410633
902	H	0.757022	0.10481	0.602259
903	C	0.902544	0.143199	0.380794
904	C	0.8724	0.113028	0.380763
905	C	0.856579	0.09751	0.339894
906	C	0.872362	0.113208	0.632412
907	C	0.902559	0.143318	0.632456
908	C	0.91817	0.159108	0.340009
909	H	0.860148	0.104836	0.602336
910	H	0.860104	0.104633	0.410772
911	H	0.910885	0.155461	0.410832
912	H	0.910934	0.155617	0.602437
913	C	0.991467	0.247288	0.673021
914	C	0.972264	0.263501	0.672977
915	C	0.937314	0.246423	0.67317
916	C	0.920308	0.211706	0.673271
917	C	0.937319	0.194	0.006527
918	C	0.972269	0.211874	0.006448
919	H	0.983249	0.288542	0.672846
920	H	0.983256	0.19782	0.006482
921	H	0.894928	0.199014	0.673342
922	C	0.527318	0.26521	0.673008
923	C	0.546515	0.300623	0.006385
924	C	0.581465	0.318498	0.006453
925	C	0.598476	0.300793	0.673244
926	C	0.581472	0.266075	0.673136
927	C	0.546521	0.248997	0.673008
928	H	0.535527	0.314677	0.006412
929	H	0.623856	0.313487	0.673349
930	H	0.535535	0.223957	0.672954
931	C	0.768362	0.247293	0.673041
932	C	0.752144	0.211883	0.673139
933	C	0.769219	0.194011	0.673244
934	C	0.803936	0.211713	0.673305
935	C	0.821654	0.24643	0.006495
936	C	0.803778	0.263506	0.006305
937	H	0.727104	0.19783	0.673193
938	H	0.817835	0.288547	0.006145
939	H	0.816622	0.199017	0.673376
940	C	0.750429	0.265208	0.673041
941	C	0.715012	0.248995	0.006291
942	C	0.69714	0.266072	0.006428
943	C	0.714855	0.300788	0.67316
944	C	0.749571	0.318489	0.67317
945	C	0.766647	0.300618	0.673163
946	H	0.700956	0.223954	0.006155
947	H	0.702169	0.313484	0.673193
948	H	0.791688	0.314672	0.673271
949	C	0.768386	0.024221	0.673109
950	C	0.803801	0.043417	0.67319
951	C	0.821678	0.078367	0.673119
952	C	0.80397	0.095376	0.673079
953	C	0.769254	0.078365	0.006397
954	C	0.752172	0.043418	0.006369
955	H	0.817855	0.032431	0.673295
956	H	0.727131	0.032434	0.006307
957	H	0.816662	0.120756	0.673089
958	C	0.750456	0.488374	0.673109
959	C	0.766671	0.469179	0.006414
960	C	0.749593	0.434231	0.00642
961	C	0.714878	0.417217	0.673133
962	C	0.697168	0.434224	0.673122
963	C	0.715039	0.469174	0.673149
964	H	0.791711	0.480161	0.006382
965	H	0.702189	0.391836	0.673173
966	H	0.700982	0.480158	0.673214
967	C	0.646538	0.250338	0.713914
968	C	0.616339	0.250249	0.714036
969	C	0.600627	0.250326	0.673247
970	C	0.61616	0.250059	0.965694
971	C	0.646276	0.249973	0.9656
972	C	0.662247	0.250341	0.673035
973	H	0.607667	0.253772	0.935635
974	H	0.608039	0.254189	0.744101
975	H	0.658823	0.254184	0.743932
976	H	0.658478	0.253794	0.935527
977	C	0.765596	0.399456	0.713998
978	C	0.765596	0.369302	0.714022
979	C	0.765318	0.35337	0.673254
980	C	0.765466	0.369223	0.965792
981	C	0.765561	0.399424	0.965741
982	C	0.765336	0.415093	0.673203
983	H	0.761655	0.357013	0.935716
984	H	0.761679	0.357045	0.744067
985	H	0.761672	0.407809	0.744027
986	H	0.761654	0.407765	0.935686
987	C	0.616241	0.369282	0.714069
988	C	0.646382	0.399451	0.714039
989	C	0.662287	0.415071	0.673234
990	C	0.646396	0.399384	0.965772
991	C	0.616256	0.369205	0.965792
992	C	0.600606	0.353392	0.673298
993	H	0.658646	0.407678	0.93571
994	H	0.658658	0.407814	0.744067
995	H	0.607896	0.357055	0.744138
996	H	0.607908	0.356964	0.93573
997	C	0.872277	0.262177	0.713971
998	C	0.902441	0.26219	0.713948
999	C	0.918157	0.26216	0.673085
1000	C	0.902595	0.262545	0.965623
1001	C	0.872425	0.262516	0.965637
1002	C	0.856555	0.262177	0.673139
1003	H	0.911069	0.25883	0.935554
1004	H	0.910756	0.258173	0.743953
1005	H	0.859996	0.258193	0.744017
1006	H	0.86025	0.258862	0.935568
1007	C	0.753431	0.113198	0.713944
1008	C	0.753322	0.143295	0.714096
1009	C	0.753449	0.159112	0.673322
1010	C	0.753228	0.143345	0.965765
1011	C	0.753176	0.113163	0.965674
1012	C	0.753516	0.097507	0.673089
1013	H	0.756965	0.155565	0.935713
1014	H	0.757227	0.155512	0.744179
1015	H	0.757257	0.104751	0.743966
1016	H	0.757022	0.10481	0.935595
1017	C	0.902544	0.143199	0.714127
1018	C	0.8724	0.113028	0.714096
1019	C	0.856579	0.09751	0.673227
1020	C	0.872362	0.113208	0.965748
1021	C	0.902559	0.143318	0.965789
1022	C	0.91817	0.159108	0.673342
1023	H	0.860148	0.104836	0.935669
1024	H	0.860104	0.104633	0.744108
1025	H	0.910885	0.155461	0.744169
1026	H	0.910934	0.155617	0.935774
1027	C	0.991467	0.747288	0.006354
1028	C	0.972266	0.763501	0.006311
1029	C	0.937314	0.746423	0.006504
1030	C	0.920307	0.711705	0.006602
1031	C	0.937319	0.694	0.33986
1032	C	0.972269	0.711873	0.339783
1033	H	0.983251	0.788542	0.006179
1034	H	0.983255	0.697819	0.339817
1035	H	0.894928	0.699014	0.006674
1036	C	0.527318	0.76521	0.006341
1037	C	0.546515	0.800623	0.339719
1038	C	0.581465	0.818498	0.339786
1039	C	0.598477	0.800793	0.006577
1040	C	0.581473	0.766075	0.00647
1041	C	0.546521	0.748997	0.00634
1042	H	0.535528	0.814677	0.339746
1043	H	0.623856	0.813487	0.006683
1044	H	0.535536	0.723956	0.006286
1045	C	0.768364	0.747293	0.006374
1046	C	0.752146	0.711883	0.006471
1047	C	0.769218	0.69401	0.006577
1048	C	0.803938	0.711712	0.006637
1049	C	0.821654	0.746431	0.33983
1050	C	0.803778	0.763506	0.339638
1051	H	0.727103	0.697828	0.006526
1052	H	0.817837	0.788547	0.339479
1053	H	0.816621	0.699016	0.006709
1054	C	0.750429	0.765208	0.006373
1055	C	0.715012	0.748995	0.339624
1056	C	0.69714	0.766072	0.339763
1057	C	0.714855	0.800788	0.006494
1058	C	0.749571	0.818489	0.006503
1059	C	0.766647	0.800618	0.006496
1060	H	0.700956	0.723954	0.339489
1061	H	0.702169	0.813484	0.006525
1062	H	0.791688	0.814672	0.006602
1063	C	0.768386	0.524221	0.006442
1064	C	0.803801	0.543418	0.006524
1065	C	0.821678	0.578366	0.00645
1066	C	0.803969	0.595375	0.00641
1067	C	0.769254	0.578364	0.339732
1068	C	0.752172	0.543418	0.339702
1069	H	0.817855	0.532431	0.006626
1070	H	0.727131	0.532434	0.339641
1071	H	0.816663	0.620757	0.006422
1072	C	0.750455	0.988371	0.006442
1073	C	0.766672	0.969177	0.339749
1074	C	0.749593	0.934231	0.339752
1075	C	0.714878	0.917218	0.006464
1076	C	0.697168	0.934224	0.006455
1077	C	0.715039	0.969174	0.006481
1078	H	0.791713	0.980161	0.339715
1079	H	0.702189	0.891836	0.006507
1080	H	0.700984	0.980158	0.006548
1081	C	0.646538	0.750338	0.047246
1082	C	0.616341	0.750249	0.047367
1083	C	0.600627	0.750326	0.00658
1084	C	0.61616	0.750059	0.299028
1085	C	0.646275	0.74997	0.298933
1086	C	0.662247	0.750341	0.006367
1087	H	0.60767	0.753772	0.268968
1088	H	0.608037	0.754187	0.077435
1089	H	0.658821	0.754182	0.077265
1090	H	0.65848	0.753794	0.26886
1091	C	0.765596	0.899456	0.04733
1092	C	0.765598	0.869302	0.047354
1093	C	0.76532	0.85337	0.006586
1094	C	0.765469	0.869223	0.299124
1095	C	0.76556	0.899421	0.299073
1096	C	0.765336	0.915093	0.006535
1097	H	0.761655	0.857013	0.26905
1098	H	0.761679	0.857045	0.077401
1099	H	0.761672	0.907809	0.07736
1100	H	0.761657	0.907765	0.269017
1101	C	0.61624	0.869279	0.047401
1102	C	0.646383	0.899451	0.047372
1103	C	0.662286	0.915071	0.006567
1104	C	0.646394	0.899382	0.299104
1105	C	0.616256	0.869205	0.299124
1106	C	0.600604	0.85339	0.00663
1107	H	0.658646	0.907678	0.269043
1108	H	0.658658	0.907814	0.077401
1109	H	0.607897	0.857055	0.07747
1110	H	0.607909	0.856964	0.269062
1111	C	0.87228	0.762177	0.047306
1112	C	0.902441	0.762187	0.047279
1113	C	0.918157	0.76216	0.006418
1114	C	0.902595	0.762545	0.298955
1115	C	0.872424	0.762513	0.29897
1116	C	0.856557	0.762177	0.006471
1117	H	0.911069	0.75883	0.268888
1118	H	0.910754	0.758171	0.077285
1119	H	0.859996	0.758193	0.077348
1120	H	0.86025	0.758862	0.268899
1121	C	0.753431	0.613198	0.047278
1122	C	0.753322	0.643295	0.04743
1123	C	0.75345	0.659111	0.006653
1124	C	0.753229	0.643345	0.299097
1125	C	0.753177	0.613164	0.299008
1126	C	0.753515	0.597506	0.006423
1127	H	0.756965	0.655564	0.269045
1128	H	0.757228	0.655512	0.077511
1129	H	0.757259	0.604751	0.0773
1130	H	0.757024	0.60481	0.268926
1131	C	0.902545	0.643199	0.047459
1132	C	0.8724	0.613028	0.047429
1133	C	0.85658	0.597509	0.00656
1134	C	0.872362	0.613208	0.29908
1135	C	0.902561	0.643318	0.299121
1136	C	0.91817	0.659108	0.006674
1137	H	0.860147	0.604835	0.269003
1138	H	0.860103	0.604632	0.077439
1139	H	0.910887	0.65546	0.0775
1140	H	0.910933	0.655616	0.269105
1141	C	0.991467	0.747288	0.339688
1142	C	0.972266	0.763501	0.339644
1143	C	0.937314	0.746423	0.339837
1144	C	0.920307	0.711705	0.339935
1145	C	0.937319	0.694	0.673193
1146	C	0.972269	0.711873	0.673116
1147	H	0.983251	0.788542	0.339513
1148	H	0.983255	0.697819	0.673149
1149	H	0.894928	0.699014	0.340009
1150	C	0.527318	0.76521	0.339675
1151	C	0.546515	0.800623	0.673052
1152	C	0.581465	0.818498	0.673119
1153	C	0.598477	0.800793	0.339911
1154	C	0.581473	0.766075	0.339803
1155	C	0.546521	0.748997	0.339675
1156	H	0.535528	0.814677	0.673079
1157	H	0.623856	0.813487	0.340016
1158	H	0.535536	0.723956	0.339621
1159	C	0.768364	0.747293	0.339709
1160	C	0.752146	0.711883	0.339806
1161	C	0.769218	0.69401	0.339911
1162	C	0.803938	0.711712	0.339972
1163	C	0.821654	0.746431	0.673163
1164	C	0.803778	0.763506	0.672974
1165	H	0.727103	0.697828	0.33986
1166	H	0.817837	0.788547	0.672812
1167	H	0.816621	0.699016	0.340043
1168	C	0.750429	0.765208	0.339705
1169	C	0.715012	0.748995	0.672957
1170	C	0.69714	0.766072	0.673095
1171	C	0.714855	0.800788	0.339827
1172	C	0.749571	0.818489	0.339837
1173	C	0.766647	0.800618	0.33983
1174	H	0.700956	0.723954	0.672822
1175	H	0.702169	0.813484	0.33986
1176	H	0.791688	0.814672	0.339935
1177	C	0.768386	0.524221	0.339776
1178	C	0.803801	0.543418	0.339857
1179	C	0.821678	0.578366	0.339783
1180	C	0.803969	0.595375	0.339746
1181	C	0.769254	0.578364	0.673065
1182	C	0.752172	0.543418	0.673035
1183	H	0.817855	0.532431	0.339958
1184	H	0.727131	0.532434	0.672974
1185	H	0.816663	0.620757	0.339756
1186	C	0.750455	0.988371	0.339776
1187	C	0.766672	0.969177	0.673082
1188	C	0.749593	0.934231	0.673089
1189	C	0.714878	0.917218	0.339796
1190	C	0.697168	0.934224	0.33979
1191	C	0.715039	0.969174	0.339813
1192	H	0.791713	0.980161	0.673048
1193	H	0.702189	0.891836	0.33984
1194	H	0.700984	0.980158	0.339881
1195	C	0.646538	0.750338	0.380578
1196	C	0.616341	0.750249	0.380699
1197	C	0.600627	0.750326	0.339914
1198	C	0.61616	0.750059	0.632361
1199	C	0.646275	0.74997	0.632267
1200	C	0.662247	0.750341	0.339702
1201	H	0.60767	0.753772	0.602302
1202	H	0.608037	0.754187	0.410768
1203	H	0.658821	0.754182	0.410599
1204	H	0.65848	0.753794	0.602194
1205	C	0.765596	0.899456	0.380662
1206	C	0.765598	0.869302	0.380686
1207	C	0.76532	0.85337	0.339918
1208	C	0.765469	0.869223	0.632459
1209	C	0.76556	0.899421	0.632405
1210	C	0.765336	0.915093	0.339867
1211	H	0.761655	0.857013	0.602383
1212	H	0.761679	0.857045	0.410734
1213	H	0.761672	0.907809	0.410694
1214	H	0.761657	0.907765	0.60235
1215	C	0.61624	0.869279	0.380736
1216	C	0.646383	0.899451	0.380706
1217	C	0.662286	0.915071	0.339901
1218	C	0.646394	0.899382	0.632439
1219	C	0.616256	0.869205	0.632459
1220	C	0.600604	0.85339	0.339962
1221	H	0.658646	0.907678	0.602377
1222	H	0.658658	0.907814	0.410734
1223	H	0.607897	0.857055	0.410805
1224	H	0.607909	0.856964	0.602397
1225	C	0.87228	0.762177	0.380639
1226	C	0.902441	0.762187	0.380612
1227	C	0.918157	0.76216	0.339752
1228	C	0.902595	0.762545	0.632287
1229	C	0.872424	0.762513	0.632304
1230	C	0.856557	0.762177	0.339803
1231	H	0.911069	0.75883	0.602221
1232	H	0.910754	0.758171	0.41062
1233	H	0.859996	0.758193	0.41068
1234	H	0.86025	0.758862	0.602232
1235	C	0.753431	0.613198	0.380612
1236	C	0.753322	0.643295	0.380763
1237	C	0.75345	0.659111	0.339985
1238	C	0.753229	0.643345	0.632432
1239	C	0.753177	0.613164	0.632341
1240	C	0.753515	0.597506	0.339756
1241	H	0.756965	0.655564	0.60238
1242	H	0.757228	0.655512	0.410846
1243	H	0.757259	0.604751	0.410633
1244	H	0.757024	0.60481	0.602259
1245	C	0.902545	0.643199	0.380794
1246	C	0.8724	0.613028	0.380763
1247	C	0.85658	0.597509	0.339894
1248	C	0.872362	0.613208	0.632412
1249	C	0.902561	0.643318	0.632456
1250	C	0.91817	0.659108	0.340009
1251	H	0.860147	0.604835	0.602336
1252	H	0.860103	0.604632	0.410772
1253	H	0.910887	0.65546	0.410832
1254	H	0.910933	0.655616	0.602437
1255	C	0.991467	0.747288	0.673021
1256	C	0.972266	0.763501	0.672977
1257	C	0.937314	0.746423	0.67317
1258	C	0.920307	0.711705	0.673271
1259	C	0.937319	0.694	0.006527
1260	C	0.972269	0.711873	0.006448
1261	H	0.983251	0.788542	0.672846
1262	H	0.983255	0.697819	0.006482
1263	H	0.894928	0.699014	0.673342
1264	C	0.527318	0.76521	0.673008
1265	C	0.546515	0.800623	0.006385
1266	C	0.581465	0.818498	0.006453
1267	C	0.598477	0.800793	0.673244
1268	C	0.581473	0.766075	0.673136
1269	C	0.546521	0.748997	0.673008
1270	H	0.535528	0.814677	0.006412
1271	H	0.623856	0.813487	0.673349
1272	H	0.535536	0.723956	0.672954
1273	C	0.768364	0.747293	0.673041
1274	C	0.752146	0.711883	0.673139
1275	C	0.769218	0.69401	0.673244
1276	C	0.803938	0.711712	0.673305
1277	C	0.821654	0.746431	0.006495
1278	C	0.803778	0.763506	0.006305
1279	H	0.727103	0.697828	0.673193
1280	H	0.817837	0.788547	0.006145
1281	H	0.816621	0.699016	0.673376
1282	C	0.750429	0.765208	0.673041
1283	C	0.715012	0.748995	0.006291
1284	C	0.69714	0.766072	0.006428
1285	C	0.714855	0.800788	0.67316
1286	C	0.749571	0.818489	0.67317
1287	C	0.766647	0.800618	0.673163
1288	H	0.700956	0.723954	0.006155
1289	H	0.702169	0.813484	0.673193
1290	H	0.791688	0.814672	0.673271
1291	C	0.768386	0.524221	0.673109
1292	C	0.803801	0.543418	0.67319
1293	C	0.821678	0.578366	0.673119
1294	C	0.803969	0.595375	0.673079
1295	C	0.769254	0.578364	0.006397
1296	C	0.752172	0.543418	0.006369
1297	H	0.817855	0.532431	0.673295
1298	H	0.727131	0.532434	0.006307
1299	H	0.816663	0.620757	0.673089
1300	C	0.750455	0.988371	0.673109
1301	C	0.766672	0.969177	0.006414
1302	C	0.749593	0.934231	0.00642
1303	C	0.714878	0.917218	0.673133
1304	C	0.697168	0.934224	0.673122
1305	C	0.715039	0.969174	0.673149
1306	H	0.791713	0.980161	0.006382
1307	H	0.702189	0.891836	0.673173
1308	H	0.700984	0.980158	0.673214
1309	C	0.646538	0.750338	0.713914
1310	C	0.616341	0.750249	0.714036
1311	C	0.600627	0.750326	0.673247
1312	C	0.61616	0.750059	0.965694
1313	C	0.646275	0.74997	0.9656
1314	C	0.662247	0.750341	0.673035
1315	H	0.60767	0.753772	0.935635
1316	H	0.608037	0.754187	0.744101
1317	H	0.658821	0.754182	0.743932
1318	H	0.65848	0.753794	0.935527
1319	C	0.765596	0.899456	0.713998
1320	C	0.765598	0.869302	0.714022
1321	C	0.76532	0.85337	0.673254
1322	C	0.765469	0.869223	0.965792
1323	C	0.76556	0.899421	0.965741
1324	C	0.765336	0.915093	0.673203
1325	H	0.761655	0.857013	0.935716
1326	H	0.761679	0.857045	0.744067
1327	H	0.761672	0.907809	0.744027
1328	H	0.761657	0.907765	0.935686
1329	C	0.61624	0.869279	0.714069
1330	C	0.646383	0.899451	0.714039
1331	C	0.662286	0.915071	0.673234
1332	C	0.646394	0.899382	0.965772
1333	C	0.616256	0.869205	0.965792
1334	C	0.600604	0.85339	0.673298
1335	H	0.658646	0.907678	0.93571
1336	H	0.658658	0.907814	0.744067
1337	H	0.607897	0.857055	0.744138
1338	H	0.607909	0.856964	0.93573
1339	C	0.87228	0.762177	0.713971
1340	C	0.902441	0.762187	0.713948
1341	C	0.918157	0.76216	0.673085
1342	C	0.902595	0.762545	0.965623
1343	C	0.872424	0.762513	0.965637
1344	C	0.856557	0.762177	0.673139
1345	H	0.911069	0.75883	0.935554
1346	H	0.910754	0.758171	0.743953
1347	H	0.859996	0.758193	0.744017
1348	H	0.86025	0.758862	0.935568
1349	C	0.753431	0.613198	0.713944
1350	C	0.753322	0.643295	0.714096
1351	C	0.75345	0.659111	0.673322
1352	C	0.753229	0.643345	0.965765
1353	C	0.753177	0.613164	0.965674
1354	C	0.753515	0.597506	0.673089
1355	H	0.756965	0.655564	0.935713
1356	H	0.757228	0.655512	0.744179
1357	H	0.757259	0.604751	0.743966
1358	H	0.757024	0.60481	0.935595
1359	C	0.902545	0.643199	0.714127
1360	C	0.8724	0.613028	0.714096
1361	C	0.85658	0.597509	0.673227
1362	C	0.872362	0.613208	0.965748
1363	C	0.902561	0.643318	0.965789
1364	C	0.91817	0.659108	0.673342
1365	H	0.860147	0.604835	0.935669
1366	H	0.860103	0.604632	0.744108
1367	H	0.910887	0.65546	0.744169
1368	H	0.910933	0.655616	0.935774
