data_C432H288N72O144_2018-02-15_10:45:37
#******************************************
#
# CIF file created by Zeo++
# Zeo++ is an open source package to
# analyze microporous materials
#
#*******************************************

_cell_length_a		45.849   
_cell_length_b		45.849   
_cell_length_c		29.2498   
_cell_angle_alpha		90   
_cell_angle_beta		90   
_cell_angle_gamma		120   

_symmetry_space_group_name_H-M		'P1'
_symmetry_Int_Tables_number		1
_symmetry_cell_setting		Monoclinic

loop_
_symmetry_equiv_pos_as_xyz
'+x,+y,+z'

loop_
_atom_site_label
_atom_site_type_symbol
_atom_site_fract_x
_atom_site_fract_y
_atom_site_fract_z
1	C	0.211344	0.336621	0.012978
2	C	0.220033	0.371024	0.012992
3	C	0.195436	0.381135	0.012979
4	C	0.161033	0.355422	0.012992
5	C	0.150922	0.320712	0.012981
6	C	0.176636	0.312023	0.012995
7	H	0.14283	0.362151	0.01287
8	H	0.169906	0.28709	0.012869
9	H	0.244966	0.389227	0.01287
10	C	0.203994	0.415477	0.012672
11	C	0.11658	0.294928	0.012672
12	C	0.237128	0.328063	0.012669
13	H	0.261435	0.34734	0.012231
14	H	0.111549	0.270622	0.012235
15	H	0.184717	0.420507	0.012231
16	C	0.327124	0.189024	0.013203
17	C	0.318435	0.154622	0.013188
18	C	0.343033	0.144511	0.013203
19	H	0.293501	0.136418	0.013312
20	C	0.334476	0.110169	0.013512
21	C	0.30134	0.197582	0.013513
22	H	0.277033	0.178307	0.013949
23	C	0.25113	0.281134	0.013154
24	C	0.234042	0.245564	0.016774
25	C	0.251694	0.227494	0.016809
26	C	0.287337	0.244511	0.346361
27	C	0.304426	0.280081	0.34274
28	C	0.286774	0.298151	0.342706
29	O	0.23326	0.193409	0.020326
30	H	0.23096	0.188304	0.053237
31	O	0.199774	0.227921	0.019727
32	O	0.338694	0.297726	0.339789
33	O	0.305208	0.332236	0.33919
34	H	0.344131	0.299395	0.307024
35	H	0.194338	0.226251	0.052492
36	H	0.307508	0.337341	0.306279
37	N	0.231716	0.296073	0.013699
38	N	0.306753	0.229573	0.345817
39	C	0.250922	0.476407	0.013155
40	C	0.286492	0.494888	0.016775
41	C	0.304562	0.030611	0.01681
42	C	0.287545	0.049237	0.346361
43	C	0.251974	0.030757	0.34274
44	C	0.233905	0.495034	0.342706
45	O	0.338647	0.046262	0.020328
46	H	0.343751	0.049068	0.053239
47	O	0.304136	0.478266	0.019729
48	O	0.234332	0.047381	0.339787
49	O	0.199821	0.479384	0.339187
50	H	0.232663	0.051148	0.307022
51	H	0.305805	0.474498	0.052494
52	H	0.194716	0.476579	0.306277
53	N	0.235984	0.442055	0.0137
54	N	0.302484	0.083591	0.345817
55	C	0.055649	0.280927	0.013154
56	C	0.037168	0.298015	0.016772
57	C	0.037023	0.245282	0.34271
58	O	0.053792	0.332282	0.019723
59	O	0.052674	0.226848	0.339193
60	H	0.057558	0.337719	0.052488
61	H	0.055479	0.224548	0.306283
62	N	0.090003	0.300342	0.013699
63	C	0.211344	0.336621	0.346313
64	C	0.220033	0.371024	0.346327
65	C	0.195436	0.381135	0.346313
66	C	0.161033	0.355422	0.346327
67	C	0.150922	0.320712	0.346313
68	C	0.176636	0.312023	0.34633
69	H	0.14283	0.362151	0.346204
70	H	0.169906	0.28709	0.346204
71	H	0.244966	0.389227	0.346204
72	C	0.203994	0.415477	0.346005
73	C	0.11658	0.294928	0.346005
74	C	0.237128	0.328063	0.346002
75	H	0.261435	0.34734	0.345564
76	H	0.111549	0.270622	0.345568
77	H	0.184717	0.420507	0.345564
78	C	0.327124	0.189024	0.346539
79	C	0.318435	0.154622	0.346522
80	C	0.343033	0.144511	0.346539
81	H	0.293501	0.136418	0.346645
82	C	0.334476	0.110169	0.346846
83	C	0.30134	0.197582	0.346846
84	H	0.277033	0.178307	0.347284
85	C	0.25113	0.281134	0.346487
86	C	0.234042	0.245564	0.350108
87	C	0.251694	0.227494	0.350142
88	C	0.287337	0.244511	0.679696
89	C	0.304426	0.280081	0.676075
90	C	0.286774	0.298151	0.676041
91	O	0.23326	0.193409	0.35366
92	H	0.23096	0.188304	0.38657
93	O	0.199774	0.227921	0.353062
94	O	0.338694	0.297726	0.673122
95	O	0.305208	0.332236	0.672523
96	H	0.344131	0.299395	0.640359
97	H	0.194338	0.226251	0.385824
98	H	0.307508	0.337341	0.639614
99	N	0.231716	0.296073	0.347034
100	N	0.306753	0.229573	0.679149
101	C	0.250922	0.476407	0.346487
102	C	0.286492	0.494888	0.350108
103	C	0.304562	0.030611	0.350145
104	C	0.287545	0.049237	0.679696
105	C	0.251974	0.030757	0.676075
106	C	0.233905	0.495034	0.676041
107	O	0.338647	0.046262	0.353663
108	H	0.343751	0.049068	0.386573
109	O	0.304136	0.478266	0.353062
110	O	0.234332	0.047381	0.673122
111	O	0.199821	0.479384	0.67252
112	H	0.232663	0.051148	0.640356
113	H	0.305805	0.474498	0.385828
114	H	0.194716	0.476579	0.63961
115	N	0.235984	0.442055	0.347034
116	N	0.302484	0.083591	0.679149
117	C	0.055649	0.280927	0.346487
118	C	0.037168	0.298015	0.350104
119	C	0.037023	0.245282	0.676041
120	O	0.053792	0.332282	0.353058
121	O	0.052674	0.226848	0.672527
122	H	0.057558	0.337719	0.385821
123	H	0.055479	0.224548	0.639617
124	N	0.090003	0.300342	0.347034
125	C	0.211344	0.336621	0.679645
126	C	0.220033	0.371024	0.679658
127	C	0.195436	0.381135	0.679648
128	C	0.161033	0.355422	0.679658
129	C	0.150922	0.320712	0.679648
130	C	0.176636	0.312023	0.679662
131	H	0.14283	0.362151	0.679539
132	H	0.169906	0.28709	0.679535
133	H	0.244966	0.389227	0.679539
134	C	0.203994	0.415477	0.679337
135	C	0.11658	0.294928	0.679337
136	C	0.237128	0.328063	0.679337
137	H	0.261435	0.34734	0.678899
138	H	0.111549	0.270622	0.678903
139	H	0.184717	0.420507	0.678899
140	C	0.327124	0.189024	0.67987
141	C	0.318435	0.154622	0.679857
142	C	0.343033	0.144511	0.67987
143	H	0.293501	0.136418	0.67998
144	C	0.334476	0.110169	0.680178
145	C	0.30134	0.197582	0.680181
146	H	0.277033	0.178307	0.680616
147	C	0.25113	0.281134	0.679822
148	C	0.234042	0.245564	0.683443
149	C	0.251694	0.227494	0.683477
150	C	0.287337	0.244511	0.013028
151	C	0.304426	0.280081	0.009407
152	C	0.286774	0.298151	0.009373
153	O	0.23326	0.193409	0.686992
154	H	0.23096	0.188304	0.719905
155	O	0.199774	0.227921	0.686393
156	O	0.338694	0.297726	0.006457
157	O	0.305208	0.332236	0.005858
158	H	0.344131	0.299395	0.973691
159	H	0.194338	0.226251	0.719159
160	H	0.307508	0.337341	0.972945
161	N	0.231716	0.296073	0.680366
162	N	0.306753	0.229573	0.012484
163	C	0.250922	0.476407	0.679822
164	C	0.286492	0.494888	0.683443
165	C	0.304562	0.030611	0.683477
166	C	0.287545	0.049237	0.013028
167	C	0.251974	0.030757	0.009407
168	C	0.233905	0.495034	0.009373
169	O	0.338647	0.046262	0.686995
170	H	0.343751	0.049068	0.719908
171	O	0.304136	0.478266	0.686397
172	O	0.234332	0.047381	0.006453
173	O	0.199821	0.479384	0.005855
174	H	0.232663	0.051148	0.973691
175	H	0.305805	0.474498	0.719163
176	H	0.194716	0.476579	0.972945
177	N	0.235984	0.442055	0.680369
178	N	0.302484	0.083591	0.012484
179	C	0.055649	0.280927	0.679822
180	C	0.037168	0.298015	0.68344
181	C	0.037023	0.245282	0.009376
182	O	0.053792	0.332282	0.68639
183	O	0.052674	0.226848	0.005862
184	H	0.057558	0.337719	0.719156
185	H	0.055479	0.224548	0.972949
186	N	0.090003	0.300342	0.680366
187	C	0.211345	0.836622	0.012978
188	C	0.220033	0.871024	0.012992
189	C	0.195435	0.881136	0.012979
190	C	0.161033	0.855422	0.012992
191	C	0.150922	0.820712	0.012981
192	C	0.176635	0.812024	0.012995
193	H	0.14283	0.862151	0.01287
194	H	0.169907	0.78709	0.012869
195	H	0.244966	0.889228	0.01287
196	C	0.203995	0.915478	0.012672
197	C	0.116581	0.794928	0.012672
198	C	0.237129	0.828064	0.012669
199	H	0.261436	0.84734	0.012231
200	H	0.111549	0.770622	0.012235
201	H	0.184719	0.920507	0.012231
202	C	0.327124	0.689026	0.013203
203	C	0.318436	0.654623	0.013188
204	C	0.343033	0.644511	0.013203
205	H	0.293503	0.636419	0.013312
206	C	0.334475	0.610169	0.013512
207	C	0.30134	0.697583	0.013513
208	H	0.277033	0.678307	0.013949
209	C	0.251131	0.781134	0.013154
210	C	0.234042	0.745566	0.016774
211	C	0.251694	0.727495	0.016809
212	C	0.287338	0.744513	0.346361
213	C	0.304427	0.780082	0.34274
214	C	0.286774	0.798152	0.342706
215	O	0.233261	0.69341	0.020326
216	H	0.230961	0.688305	0.053237
217	O	0.199774	0.727921	0.019727
218	O	0.338695	0.797726	0.339789
219	O	0.305208	0.832237	0.33919
220	H	0.344132	0.799396	0.307024
221	H	0.194338	0.726251	0.052492
222	H	0.307508	0.837342	0.306279
223	N	0.231716	0.796074	0.013699
224	N	0.306753	0.729573	0.345817
225	C	0.250923	0.976408	0.013155
226	C	0.286492	0.994888	0.016775
227	C	0.304563	0.530613	0.01681
228	C	0.287545	0.549237	0.346361
229	C	0.251975	0.530756	0.34274
230	C	0.233906	0.995034	0.342706
231	O	0.338648	0.546263	0.020328
232	H	0.343752	0.549068	0.053239
233	O	0.304136	0.978266	0.019729
234	O	0.234332	0.547381	0.339787
235	O	0.199821	0.979385	0.339187
236	H	0.232663	0.551148	0.307022
237	H	0.305805	0.974499	0.052494
238	H	0.194717	0.976579	0.306277
239	N	0.235984	0.942056	0.0137
240	N	0.302484	0.583592	0.345817
241	C	0.05565	0.780928	0.013154
242	C	0.037168	0.798016	0.016772
243	C	0.037023	0.745284	0.34271
244	O	0.053793	0.832282	0.019723
245	O	0.052674	0.726848	0.339193
246	H	0.057559	0.83772	0.052488
247	H	0.05548	0.724549	0.306283
248	N	0.090003	0.800343	0.013699
249	C	0.211345	0.836622	0.346313
250	C	0.220033	0.871024	0.346327
251	C	0.195435	0.881136	0.346313
252	C	0.161033	0.855422	0.346327
253	C	0.150922	0.820712	0.346313
254	C	0.176635	0.812024	0.34633
255	H	0.14283	0.862151	0.346204
256	H	0.169907	0.78709	0.346204
257	H	0.244966	0.889228	0.346204
258	C	0.203995	0.915478	0.346005
259	C	0.116581	0.794928	0.346005
260	C	0.237129	0.828064	0.346002
261	H	0.261436	0.84734	0.345564
262	H	0.111549	0.770622	0.345568
263	H	0.184719	0.920507	0.345564
264	C	0.327124	0.689026	0.346539
265	C	0.318436	0.654623	0.346522
266	C	0.343033	0.644511	0.346539
267	H	0.293503	0.636419	0.346645
268	C	0.334475	0.610169	0.346846
269	C	0.30134	0.697583	0.346846
270	H	0.277033	0.678307	0.347284
271	C	0.251131	0.781134	0.346487
272	C	0.234042	0.745566	0.350108
273	C	0.251694	0.727495	0.350142
274	C	0.287338	0.744513	0.679696
275	C	0.304427	0.780082	0.676075
276	C	0.286774	0.798152	0.676041
277	O	0.233261	0.69341	0.35366
278	H	0.230961	0.688305	0.38657
279	O	0.199774	0.727921	0.353062
280	O	0.338695	0.797726	0.673122
281	O	0.305208	0.832237	0.672523
282	H	0.344132	0.799396	0.640359
283	H	0.194338	0.726251	0.385824
284	H	0.307508	0.837342	0.639614
285	N	0.231716	0.796074	0.347034
286	N	0.306753	0.729573	0.679149
287	C	0.250923	0.976408	0.346487
288	C	0.286492	0.994888	0.350108
289	C	0.304563	0.530613	0.350145
290	C	0.287545	0.549237	0.679696
291	C	0.251975	0.530756	0.676075
292	C	0.233906	0.995034	0.676041
293	O	0.338648	0.546263	0.353663
294	H	0.343752	0.549068	0.386573
295	O	0.304136	0.978266	0.353062
296	O	0.234332	0.547381	0.673122
297	O	0.199821	0.979385	0.67252
298	H	0.232663	0.551148	0.640356
299	H	0.305805	0.974499	0.385828
300	H	0.194717	0.976579	0.63961
301	N	0.235984	0.942056	0.347034
302	N	0.302484	0.583592	0.679149
303	C	0.05565	0.780928	0.346487
304	C	0.037168	0.798016	0.350104
305	C	0.037023	0.745284	0.676041
306	O	0.053793	0.832282	0.353058
307	O	0.052674	0.726848	0.672527
308	H	0.057559	0.83772	0.385821
309	H	0.05548	0.724549	0.639617
310	N	0.090003	0.800343	0.347034
311	C	0.211345	0.836622	0.679645
312	C	0.220033	0.871024	0.679658
313	C	0.195435	0.881136	0.679648
314	C	0.161033	0.855422	0.679658
315	C	0.150922	0.820712	0.679648
316	C	0.176635	0.812024	0.679662
317	H	0.14283	0.862151	0.679539
318	H	0.169907	0.78709	0.679535
319	H	0.244966	0.889228	0.679539
320	C	0.203995	0.915478	0.679337
321	C	0.116581	0.794928	0.679337
322	C	0.237129	0.828064	0.679337
323	H	0.261436	0.84734	0.678899
324	H	0.111549	0.770622	0.678903
325	H	0.184719	0.920507	0.678899
326	C	0.327124	0.689026	0.67987
327	C	0.318436	0.654623	0.679857
328	C	0.343033	0.644511	0.67987
329	H	0.293503	0.636419	0.67998
330	C	0.334475	0.610169	0.680178
331	C	0.30134	0.697583	0.680181
332	H	0.277033	0.678307	0.680616
333	C	0.251131	0.781134	0.679822
334	C	0.234042	0.745566	0.683443
335	C	0.251694	0.727495	0.683477
336	C	0.287338	0.744513	0.013028
337	C	0.304427	0.780082	0.009407
338	C	0.286774	0.798152	0.009373
339	O	0.233261	0.69341	0.686992
340	H	0.230961	0.688305	0.719905
341	O	0.199774	0.727921	0.686393
342	O	0.338695	0.797726	0.006457
343	O	0.305208	0.832237	0.005858
344	H	0.344132	0.799396	0.973691
345	H	0.194338	0.726251	0.719159
346	H	0.307508	0.837342	0.972945
347	N	0.231716	0.796074	0.680366
348	N	0.306753	0.729573	0.012484
349	C	0.250923	0.976408	0.679822
350	C	0.286492	0.994888	0.683443
351	C	0.304563	0.530613	0.683477
352	C	0.287545	0.549237	0.013028
353	C	0.251975	0.530756	0.009407
354	C	0.233906	0.995034	0.009373
355	O	0.338648	0.546263	0.686995
356	H	0.343752	0.549068	0.719908
357	O	0.304136	0.978266	0.686397
358	O	0.234332	0.547381	0.006453
359	O	0.199821	0.979385	0.005855
360	H	0.232663	0.551148	0.973691
361	H	0.305805	0.974499	0.719163
362	H	0.194717	0.976579	0.972945
363	N	0.235984	0.942056	0.680369
364	N	0.302484	0.583592	0.012484
365	C	0.05565	0.780928	0.679822
366	C	0.037168	0.798016	0.68344
367	C	0.037023	0.745284	0.009376
368	O	0.053793	0.832282	0.68639
369	O	0.052674	0.726848	0.005862
370	H	0.057559	0.83772	0.719156
371	H	0.05548	0.724549	0.972949
372	N	0.090003	0.800343	0.680366
373	C	0.377435	0.170225	0.01319
374	C	0.387546	0.204933	0.013202
375	C	0.361833	0.213622	0.013189
376	H	0.395639	0.163495	0.013313
377	H	0.368561	0.238555	0.013311
378	C	0.421889	0.230717	0.013512
379	H	0.426919	0.255025	0.013948
380	H	0.353749	0.105138	0.013953
381	C	0.501446	0.280363	0.016807
382	C	0.482819	0.244719	0.346361
383	C	0.5013	0.22763	0.342744
384	O	0.485795	0.298798	0.020322
385	H	0.482988	0.301098	0.053232
386	O	0.484677	0.193363	0.339792
387	H	0.480909	0.187925	0.307027
388	N	0.448465	0.225304	0.345817
389	C	0.377435	0.170225	0.346525
390	C	0.387546	0.204933	0.346535
391	C	0.361833	0.213622	0.346522
392	H	0.395639	0.163495	0.346648
393	H	0.368561	0.238555	0.346645
394	C	0.421889	0.230717	0.346846
395	H	0.426919	0.255025	0.347281
396	H	0.353749	0.105138	0.347287
397	C	0.501446	0.280363	0.350142
398	C	0.482819	0.244719	0.679696
399	C	0.5013	0.22763	0.676075
400	O	0.485795	0.298798	0.353657
401	H	0.482988	0.301098	0.386566
402	O	0.484677	0.193363	0.673125
403	H	0.480909	0.187925	0.640362
404	N	0.448465	0.225304	0.679149
405	C	0.377435	0.170225	0.679857
406	C	0.387546	0.204933	0.67987
407	C	0.361833	0.213622	0.679857
408	H	0.395639	0.163495	0.67998
409	H	0.368561	0.238555	0.67998
410	C	0.421889	0.230717	0.680178
411	H	0.426919	0.255025	0.680616
412	H	0.353749	0.105138	0.680622
413	C	0.501446	0.280363	0.683474
414	C	0.482819	0.244719	0.013027
415	C	0.5013	0.22763	0.009411
416	O	0.485795	0.298798	0.686988
417	H	0.482988	0.301098	0.719901
418	O	0.484677	0.193363	0.00646
419	H	0.480909	0.187925	0.973694
420	N	0.448465	0.225304	0.012484
421	C	0.377435	0.670225	0.01319
422	C	0.387547	0.704935	0.013202
423	C	0.361832	0.713621	0.013189
424	H	0.395639	0.663496	0.013313
425	H	0.368561	0.738554	0.013311
426	C	0.421888	0.730717	0.013512
427	H	0.42692	0.755025	0.013948
428	H	0.35375	0.605137	0.013953
429	C	0.501446	0.780364	0.016807
430	C	0.482819	0.744719	0.346361
431	C	0.501301	0.727631	0.342744
432	O	0.485795	0.798799	0.020322
433	H	0.482989	0.801098	0.053232
434	O	0.484676	0.693362	0.339792
435	H	0.480909	0.687925	0.307027
436	N	0.448466	0.725304	0.345817
437	C	0.377435	0.670225	0.346525
438	C	0.387547	0.704935	0.346535
439	C	0.361832	0.713621	0.346522
440	H	0.395639	0.663496	0.346648
441	H	0.368561	0.738554	0.346645
442	C	0.421888	0.730717	0.346846
443	H	0.42692	0.755025	0.347281
444	H	0.35375	0.605137	0.347287
445	C	0.501446	0.780364	0.350142
446	C	0.482819	0.744719	0.679696
447	C	0.501301	0.727631	0.676075
448	O	0.485795	0.798799	0.353657
449	H	0.482989	0.801098	0.386566
450	O	0.484676	0.693362	0.673125
451	H	0.480909	0.687925	0.640362
452	N	0.448466	0.725304	0.679149
453	C	0.377435	0.670225	0.679857
454	C	0.387547	0.704935	0.67987
455	C	0.361832	0.713621	0.679857
456	H	0.395639	0.663496	0.67998
457	H	0.368561	0.738554	0.67998
458	C	0.421888	0.730717	0.680178
459	H	0.42692	0.755025	0.680616
460	H	0.35375	0.605137	0.680622
461	C	0.501446	0.780364	0.683474
462	C	0.482819	0.744719	0.013027
463	C	0.501301	0.727631	0.009411
464	O	0.485795	0.798799	0.686988
465	H	0.482989	0.801098	0.719901
466	O	0.484676	0.693362	0.00646
467	H	0.480909	0.687925	0.973694
468	N	0.448466	0.725304	0.012484
469	C	0.55565	0.280927	0.013154
470	C	0.537169	0.298015	0.016772
471	C	0.537023	0.245282	0.34271
472	O	0.553792	0.332282	0.019723
473	O	0.552675	0.226848	0.339193
474	H	0.557557	0.337719	0.052488
475	H	0.555479	0.224548	0.306283
476	N	0.590002	0.300342	0.013699
477	C	0.55565	0.280927	0.346487
478	C	0.537169	0.298015	0.350104
479	C	0.537023	0.245282	0.676041
480	O	0.553792	0.332282	0.353058
481	O	0.552675	0.226848	0.672527
482	H	0.557557	0.337719	0.385821
483	H	0.555479	0.224548	0.639617
484	N	0.590002	0.300342	0.347034
485	C	0.55565	0.280927	0.679822
486	C	0.537169	0.298015	0.68344
487	C	0.537023	0.245282	0.009376
488	O	0.553792	0.332282	0.68639
489	O	0.552675	0.226848	0.005862
490	H	0.557557	0.337719	0.719156
491	H	0.555479	0.224548	0.972949
492	N	0.590002	0.300342	0.680366
493	C	0.55565	0.780928	0.013154
494	C	0.537168	0.798016	0.016772
495	C	0.537023	0.745284	0.34271
496	O	0.553792	0.832282	0.019723
497	O	0.552674	0.726848	0.339193
498	H	0.557558	0.83772	0.052488
499	H	0.55548	0.724549	0.306283
500	N	0.590003	0.800343	0.013699
501	C	0.55565	0.780928	0.346487
502	C	0.537168	0.798016	0.350104
503	C	0.537023	0.745284	0.676041
504	O	0.553792	0.832282	0.353058
505	O	0.552674	0.726848	0.672527
506	H	0.557558	0.83772	0.385821
507	H	0.55548	0.724549	0.639617
508	N	0.590003	0.800343	0.347034
509	C	0.55565	0.780928	0.679822
510	C	0.537168	0.798016	0.68344
511	C	0.537023	0.745284	0.009376
512	O	0.553792	0.832282	0.68639
513	O	0.552674	0.726848	0.005862
514	H	0.557558	0.83772	0.719156
515	H	0.55548	0.724549	0.972949
516	N	0.590003	0.800343	0.680366
517	C	0.711345	0.336621	0.012978
518	C	0.720034	0.371024	0.012992
519	C	0.695436	0.381135	0.012979
520	C	0.661034	0.355422	0.012992
521	C	0.650921	0.320712	0.012981
522	C	0.676636	0.312023	0.012995
523	H	0.64283	0.362151	0.01287
524	H	0.669905	0.28709	0.012869
525	H	0.744966	0.389227	0.01287
526	C	0.703994	0.415477	0.012672
527	C	0.61658	0.294928	0.012672
528	C	0.737128	0.328063	0.012669
529	H	0.761436	0.34734	0.012231
530	H	0.611548	0.270622	0.012235
531	H	0.684717	0.420507	0.012231
532	C	0.827124	0.189024	0.013203
533	C	0.818435	0.154622	0.013188
534	C	0.843033	0.144511	0.013203
535	C	0.877435	0.170225	0.01319
536	C	0.887546	0.204933	0.013202
537	C	0.861833	0.213622	0.013189
538	H	0.895639	0.163495	0.013313
539	H	0.868561	0.238555	0.013311
540	H	0.793501	0.136418	0.013312
541	C	0.834473	0.110169	0.013512
542	C	0.921889	0.230717	0.013512
543	C	0.801339	0.197582	0.013513
544	H	0.777033	0.178307	0.013949
545	H	0.926919	0.255025	0.013948
546	H	0.853749	0.105138	0.013953
547	C	0.75113	0.281134	0.013154
548	C	0.734041	0.245564	0.016774
549	C	0.751693	0.227494	0.016809
550	C	0.787337	0.244511	0.346361
551	C	0.804426	0.280081	0.34274
552	C	0.786773	0.298151	0.342706
553	O	0.733259	0.193409	0.020326
554	H	0.73096	0.188304	0.053237
555	O	0.699775	0.227921	0.019727
556	O	0.838695	0.297726	0.339789
557	O	0.805207	0.332236	0.33919
558	H	0.844132	0.299395	0.307024
559	H	0.694338	0.226251	0.052492
560	H	0.807507	0.337341	0.306279
561	N	0.731716	0.296073	0.013699
562	N	0.806752	0.229573	0.345817
563	C	0.750921	0.476407	0.013155
564	C	0.786492	0.494888	0.016775
565	C	0.804562	0.030611	0.01681
566	C	0.787545	0.049237	0.346361
567	C	0.751974	0.030757	0.34274
568	C	0.733905	0.495034	0.342706
569	O	0.838647	0.046262	0.020328
570	H	0.843751	0.049068	0.053239
571	O	0.804135	0.478266	0.019729
572	O	0.734332	0.047381	0.339787
573	O	0.69982	0.479384	0.339187
574	H	0.732662	0.051148	0.307022
575	H	0.805805	0.474498	0.052494
576	H	0.694716	0.476579	0.306277
577	N	0.735985	0.442055	0.0137
578	N	0.802484	0.083591	0.345817
579	C	0.001446	0.280363	0.016807
580	C	0.982819	0.244719	0.346361
581	C	0.0013	0.22763	0.342744
582	O	0.985795	0.298798	0.020322
583	H	0.982988	0.301098	0.053232
584	O	0.984677	0.193363	0.339792
585	H	0.980909	0.187925	0.307027
586	N	0.948465	0.225304	0.345817
587	C	0.711345	0.336621	0.346313
588	C	0.720034	0.371024	0.346327
589	C	0.695436	0.381135	0.346313
590	C	0.661034	0.355422	0.346327
591	C	0.650921	0.320712	0.346313
592	C	0.676636	0.312023	0.34633
593	H	0.64283	0.362151	0.346204
594	H	0.669905	0.28709	0.346204
595	H	0.744966	0.389227	0.346204
596	C	0.703994	0.415477	0.346005
597	C	0.61658	0.294928	0.346005
598	C	0.737128	0.328063	0.346002
599	H	0.761436	0.34734	0.345564
600	H	0.611548	0.270622	0.345568
601	H	0.684717	0.420507	0.345564
602	C	0.827124	0.189024	0.346539
603	C	0.818435	0.154622	0.346522
604	C	0.843033	0.144511	0.346539
605	C	0.877435	0.170225	0.346525
606	C	0.887546	0.204933	0.346535
607	C	0.861833	0.213622	0.346522
608	H	0.895639	0.163495	0.346648
609	H	0.868561	0.238555	0.346645
610	H	0.793501	0.136418	0.346645
611	C	0.834473	0.110169	0.346846
612	C	0.921889	0.230717	0.346846
613	C	0.801339	0.197582	0.346846
614	H	0.777033	0.178307	0.347284
615	H	0.926919	0.255025	0.347281
616	H	0.853749	0.105138	0.347287
617	C	0.75113	0.281134	0.346487
618	C	0.734041	0.245564	0.350108
619	C	0.751693	0.227494	0.350142
620	C	0.787337	0.244511	0.679696
621	C	0.804426	0.280081	0.676075
622	C	0.786773	0.298151	0.676041
623	O	0.733259	0.193409	0.35366
624	H	0.73096	0.188304	0.38657
625	O	0.699775	0.227921	0.353062
626	O	0.838695	0.297726	0.673122
627	O	0.805207	0.332236	0.672523
628	H	0.844132	0.299395	0.640359
629	H	0.694338	0.226251	0.385824
630	H	0.807507	0.337341	0.639614
631	N	0.731716	0.296073	0.347034
632	N	0.806752	0.229573	0.679149
633	C	0.750921	0.476407	0.346487
634	C	0.786492	0.494888	0.350108
635	C	0.804562	0.030611	0.350145
636	C	0.787545	0.049237	0.679696
637	C	0.751974	0.030757	0.676075
638	C	0.733905	0.495034	0.676041
639	O	0.838647	0.046262	0.353663
640	H	0.843751	0.049068	0.386573
641	O	0.804135	0.478266	0.353062
642	O	0.734332	0.047381	0.673122
643	O	0.69982	0.479384	0.67252
644	H	0.732662	0.051148	0.640356
645	H	0.805805	0.474498	0.385828
646	H	0.694716	0.476579	0.63961
647	N	0.735985	0.442055	0.347034
648	N	0.802484	0.083591	0.679149
649	C	0.001446	0.280363	0.350142
650	C	0.982819	0.244719	0.679696
651	C	0.0013	0.22763	0.676075
652	O	0.985795	0.298798	0.353657
653	H	0.982988	0.301098	0.386566
654	O	0.984677	0.193363	0.673125
655	H	0.980909	0.187925	0.640362
656	N	0.948465	0.225304	0.679149
657	C	0.711345	0.336621	0.679645
658	C	0.720034	0.371024	0.679658
659	C	0.695436	0.381135	0.679648
660	C	0.661034	0.355422	0.679658
661	C	0.650921	0.320712	0.679648
662	C	0.676636	0.312023	0.679662
663	H	0.64283	0.362151	0.679539
664	H	0.669905	0.28709	0.679535
665	H	0.744966	0.389227	0.679539
666	C	0.703994	0.415477	0.679337
667	C	0.61658	0.294928	0.679337
668	C	0.737128	0.328063	0.679337
669	H	0.761436	0.34734	0.678899
670	H	0.611548	0.270622	0.678903
671	H	0.684717	0.420507	0.678899
672	C	0.827124	0.189024	0.67987
673	C	0.818435	0.154622	0.679857
674	C	0.843033	0.144511	0.67987
675	C	0.877435	0.170225	0.679857
676	C	0.887546	0.204933	0.67987
677	C	0.861833	0.213622	0.679857
678	H	0.895639	0.163495	0.67998
679	H	0.868561	0.238555	0.67998
680	H	0.793501	0.136418	0.67998
681	C	0.834473	0.110169	0.680178
682	C	0.921889	0.230717	0.680178
683	C	0.801339	0.197582	0.680181
684	H	0.777033	0.178307	0.680616
685	H	0.926919	0.255025	0.680616
686	H	0.853749	0.105138	0.680622
687	C	0.75113	0.281134	0.679822
688	C	0.734041	0.245564	0.683443
689	C	0.751693	0.227494	0.683477
690	C	0.787337	0.244511	0.013028
691	C	0.804426	0.280081	0.009407
692	C	0.786773	0.298151	0.009373
693	O	0.733259	0.193409	0.686992
694	H	0.73096	0.188304	0.719905
695	O	0.699775	0.227921	0.686393
696	O	0.838695	0.297726	0.006457
697	O	0.805207	0.332236	0.005858
698	H	0.844132	0.299395	0.973691
699	H	0.694338	0.226251	0.719159
700	H	0.807507	0.337341	0.972945
701	N	0.731716	0.296073	0.680366
702	N	0.806752	0.229573	0.012484
703	C	0.750921	0.476407	0.679822
704	C	0.786492	0.494888	0.683443
705	C	0.804562	0.030611	0.683477
706	C	0.787545	0.049237	0.013028
707	C	0.751974	0.030757	0.009407
708	C	0.733905	0.495034	0.009373
709	O	0.838647	0.046262	0.686995
710	H	0.843751	0.049068	0.719908
711	O	0.804135	0.478266	0.686397
712	O	0.734332	0.047381	0.006453
713	O	0.69982	0.479384	0.005855
714	H	0.732662	0.051148	0.973691
715	H	0.805805	0.474498	0.719163
716	H	0.694716	0.476579	0.972945
717	N	0.735985	0.442055	0.680369
718	N	0.802484	0.083591	0.012484
719	C	0.001446	0.280363	0.683474
720	C	0.982819	0.244719	0.013027
721	C	0.0013	0.22763	0.009411
722	O	0.985795	0.298798	0.686988
723	H	0.982988	0.301098	0.719901
724	O	0.984677	0.193363	0.00646
725	H	0.980909	0.187925	0.973694
726	N	0.948465	0.225304	0.012484
727	C	0.711344	0.836622	0.012978
728	C	0.720033	0.871024	0.012992
729	C	0.695435	0.881136	0.012979
730	C	0.661033	0.855422	0.012992
731	C	0.650922	0.820712	0.012981
732	C	0.676635	0.812024	0.012995
733	H	0.64283	0.862151	0.01287
734	H	0.669907	0.78709	0.012869
735	H	0.744967	0.889228	0.01287
736	C	0.703993	0.915478	0.012672
737	C	0.616581	0.794928	0.012672
738	C	0.737129	0.828064	0.012669
739	H	0.761435	0.84734	0.012231
740	H	0.611549	0.770622	0.012235
741	H	0.684719	0.920507	0.012231
742	C	0.827123	0.689026	0.013203
743	C	0.818435	0.654623	0.013188
744	C	0.843033	0.644511	0.013203
745	C	0.877434	0.670225	0.01319
746	C	0.887548	0.704935	0.013202
747	C	0.861831	0.713621	0.013189
748	H	0.895638	0.663496	0.013313
749	H	0.868562	0.738554	0.013311
750	H	0.793503	0.636419	0.013312
751	C	0.834475	0.610169	0.013512
752	C	0.921887	0.730717	0.013512
753	C	0.80134	0.697583	0.013513
754	H	0.777032	0.678307	0.013949
755	H	0.92692	0.755025	0.013948
756	H	0.85375	0.605137	0.013953
757	C	0.751131	0.781134	0.013154
758	C	0.734043	0.745566	0.016774
759	C	0.751695	0.727495	0.016809
760	C	0.787339	0.744513	0.346361
761	C	0.804427	0.780082	0.34274
762	C	0.786775	0.798152	0.342706
763	O	0.733261	0.69341	0.020326
764	H	0.730962	0.688305	0.053237
765	O	0.699774	0.727921	0.019727
766	O	0.838694	0.797726	0.339789
767	O	0.805209	0.832237	0.33919
768	H	0.844131	0.799396	0.307024
769	H	0.694337	0.726251	0.052492
770	H	0.807508	0.837342	0.306279
771	N	0.731717	0.796074	0.013699
772	N	0.806753	0.729573	0.345817
773	C	0.750923	0.976408	0.013155
774	C	0.786493	0.994888	0.016775
775	C	0.804563	0.530613	0.01681
776	C	0.787546	0.549237	0.346361
777	C	0.751975	0.530756	0.34274
778	C	0.733906	0.995034	0.342706
779	O	0.838649	0.546263	0.020328
780	H	0.843753	0.549068	0.053239
781	O	0.804137	0.978266	0.019729
782	O	0.734333	0.547381	0.339787
783	O	0.699821	0.979385	0.339187
784	H	0.732664	0.551148	0.307022
785	H	0.805806	0.974499	0.052494
786	H	0.694717	0.976579	0.306277
787	N	0.735984	0.942056	0.0137
788	N	0.802483	0.583592	0.345817
789	C	0.001445	0.780364	0.016807
790	C	0.98282	0.744719	0.346361
791	C	0.0013	0.727631	0.342744
792	O	0.985796	0.798799	0.020322
793	H	0.982989	0.801098	0.053232
794	O	0.984675	0.693362	0.339792
795	H	0.98091	0.687925	0.307027
796	N	0.948467	0.725304	0.345817
797	C	0.711344	0.836622	0.346313
798	C	0.720033	0.871024	0.346327
799	C	0.695435	0.881136	0.346313
800	C	0.661033	0.855422	0.346327
801	C	0.650922	0.820712	0.346313
802	C	0.676635	0.812024	0.34633
803	H	0.64283	0.862151	0.346204
804	H	0.669907	0.78709	0.346204
805	H	0.744967	0.889228	0.346204
806	C	0.703993	0.915478	0.346005
807	C	0.616581	0.794928	0.346005
808	C	0.737129	0.828064	0.346002
809	H	0.761435	0.84734	0.345564
810	H	0.611549	0.770622	0.345568
811	H	0.684719	0.920507	0.345564
812	C	0.827123	0.689026	0.346539
813	C	0.818435	0.654623	0.346522
814	C	0.843033	0.644511	0.346539
815	C	0.877434	0.670225	0.346525
816	C	0.887548	0.704935	0.346535
817	C	0.861831	0.713621	0.346522
818	H	0.895638	0.663496	0.346648
819	H	0.868562	0.738554	0.346645
820	H	0.793503	0.636419	0.346645
821	C	0.834475	0.610169	0.346846
822	C	0.921887	0.730717	0.346846
823	C	0.80134	0.697583	0.346846
824	H	0.777032	0.678307	0.347284
825	H	0.92692	0.755025	0.347281
826	H	0.85375	0.605137	0.347287
827	C	0.751131	0.781134	0.346487
828	C	0.734043	0.745566	0.350108
829	C	0.751695	0.727495	0.350142
830	C	0.787339	0.744513	0.679696
831	C	0.804427	0.780082	0.676075
832	C	0.786775	0.798152	0.676041
833	O	0.733261	0.69341	0.35366
834	H	0.730962	0.688305	0.38657
835	O	0.699774	0.727921	0.353062
836	O	0.838694	0.797726	0.673122
837	O	0.805209	0.832237	0.672523
838	H	0.844131	0.799396	0.640359
839	H	0.694337	0.726251	0.385824
840	H	0.807508	0.837342	0.639614
841	N	0.731717	0.796074	0.347034
842	N	0.806753	0.729573	0.679149
843	C	0.750923	0.976408	0.346487
844	C	0.786493	0.994888	0.350108
845	C	0.804563	0.530613	0.350145
846	C	0.787546	0.549237	0.679696
847	C	0.751975	0.530756	0.676075
848	C	0.733906	0.995034	0.676041
849	O	0.838649	0.546263	0.353663
850	H	0.843753	0.549068	0.386573
851	O	0.804137	0.978266	0.353062
852	O	0.734333	0.547381	0.673122
853	O	0.699821	0.979385	0.67252
854	H	0.732664	0.551148	0.640356
855	H	0.805806	0.974499	0.385828
856	H	0.694717	0.976579	0.63961
857	N	0.735984	0.942056	0.347034
858	N	0.802483	0.583592	0.679149
859	C	0.001445	0.780364	0.350142
860	C	0.98282	0.744719	0.679696
861	C	0.0013	0.727631	0.676075
862	O	0.985796	0.798799	0.353657
863	H	0.982989	0.801098	0.386566
864	O	0.984675	0.693362	0.673125
865	H	0.98091	0.687925	0.640362
866	N	0.948467	0.725304	0.679149
867	C	0.711344	0.836622	0.679645
868	C	0.720033	0.871024	0.679658
869	C	0.695435	0.881136	0.679648
870	C	0.661033	0.855422	0.679658
871	C	0.650922	0.820712	0.679648
872	C	0.676635	0.812024	0.679662
873	H	0.64283	0.862151	0.679539
874	H	0.669907	0.78709	0.679535
875	H	0.744967	0.889228	0.679539
876	C	0.703993	0.915478	0.679337
877	C	0.616581	0.794928	0.679337
878	C	0.737129	0.828064	0.679337
879	H	0.761435	0.84734	0.678899
880	H	0.611549	0.770622	0.678903
881	H	0.684719	0.920507	0.678899
882	C	0.827123	0.689026	0.67987
883	C	0.818435	0.654623	0.679857
884	C	0.843033	0.644511	0.67987
885	C	0.877434	0.670225	0.679857
886	C	0.887548	0.704935	0.67987
887	C	0.861831	0.713621	0.679857
888	H	0.895638	0.663496	0.67998
889	H	0.868562	0.738554	0.67998
890	H	0.793503	0.636419	0.67998
891	C	0.834475	0.610169	0.680178
892	C	0.921887	0.730717	0.680178
893	C	0.80134	0.697583	0.680181
894	H	0.777032	0.678307	0.680616
895	H	0.92692	0.755025	0.680616
896	H	0.85375	0.605137	0.680622
897	C	0.751131	0.781134	0.679822
898	C	0.734043	0.745566	0.683443
899	C	0.751695	0.727495	0.683477
900	C	0.787339	0.744513	0.013028
901	C	0.804427	0.780082	0.009407
902	C	0.786775	0.798152	0.009373
903	O	0.733261	0.69341	0.686992
904	H	0.730962	0.688305	0.719905
905	O	0.699774	0.727921	0.686393
906	O	0.838694	0.797726	0.006457
907	O	0.805209	0.832237	0.005858
908	H	0.844131	0.799396	0.973691
909	H	0.694337	0.726251	0.719159
910	H	0.807508	0.837342	0.972945
911	N	0.731717	0.796074	0.680366
912	N	0.806753	0.729573	0.012484
913	C	0.750923	0.976408	0.679822
914	C	0.786493	0.994888	0.683443
915	C	0.804563	0.530613	0.683477
916	C	0.787546	0.549237	0.013028
917	C	0.751975	0.530756	0.009407
918	C	0.733906	0.995034	0.009373
919	O	0.838649	0.546263	0.686995
920	H	0.843753	0.549068	0.719908
921	O	0.804137	0.978266	0.686397
922	O	0.734333	0.547381	0.006453
923	O	0.699821	0.979385	0.005855
924	H	0.732664	0.551148	0.973691
925	H	0.805806	0.974499	0.719163
926	H	0.694717	0.976579	0.972945
927	N	0.735984	0.942056	0.680369
928	N	0.802483	0.583592	0.012484
929	C	0.001445	0.780364	0.683474
930	C	0.98282	0.744719	0.013027
931	C	0.0013	0.727631	0.009411
932	O	0.985796	0.798799	0.686988
933	H	0.982989	0.801098	0.719901
934	O	0.984675	0.693362	0.00646
935	H	0.98091	0.687925	0.973694
936	N	0.948467	0.725304	0.012484
