data_C576H288N144_2018-02-15_10:40:19
#******************************************
#
# CIF file created by Zeo++
# Zeo++ is an open source package to
# analyze microporous materials
#
#*******************************************

_cell_length_a		44.8966   
_cell_length_b		44.9174   
_cell_length_c		29.4974   
_cell_angle_alpha		90   
_cell_angle_beta		90   
_cell_angle_gamma		119.989   

_symmetry_space_group_name_H-M		'P1'
_symmetry_Int_Tables_number		1
_symmetry_cell_setting		Monoclinic

loop_
_symmetry_equiv_pos_as_xyz
'+x,+y,+z'

loop_
_atom_site_label
_atom_site_type_symbol
_atom_site_fract_x
_atom_site_fract_y
_atom_site_fract_z
1	C	0.046666	0.025398	0.008446
2	C	0.028193	0.043287	0.00845
3	C	0.028268	0.489049	0.008446
4	H	0.041474	0.475901	0.008456
5	H	0.041343	0.06963	0.00846
6	C	0.10224	0.053258	0.301085
7	N	0.137191	0.070795	0.302187
8	C	0.15495	0.079714	0.341885
9	N	0.137145	0.070769	0.048211
10	C	0.102194	0.053232	0.049244
11	C	0.08316	0.043679	0.008477
12	H	0.090094	0.047165	0.270353
13	H	0.090013	0.04712	0.079952
14	C	0.046666	0.025398	0.34178
15	C	0.028193	0.043287	0.341783
16	C	0.028268	0.489049	0.34178
17	H	0.041474	0.475901	0.34179
18	H	0.041343	0.06963	0.341797
19	C	0.10224	0.053258	0.634416
20	N	0.137191	0.070795	0.635521
21	C	0.15495	0.079714	0.675216
22	N	0.137145	0.070769	0.381543
23	C	0.102194	0.053232	0.382577
24	C	0.08316	0.043679	0.341814
25	H	0.090094	0.047165	0.603688
26	H	0.090013	0.04712	0.413284
27	C	0.046666	0.025398	0.675115
28	C	0.028193	0.043287	0.675115
29	C	0.028268	0.489049	0.675111
30	H	0.041474	0.475901	0.675121
31	H	0.041343	0.06963	0.675128
32	C	0.10224	0.053258	0.967751
33	N	0.137191	0.070795	0.968853
34	C	0.15495	0.079714	0.008551
35	N	0.137145	0.070769	0.714877
36	C	0.102194	0.053232	0.715911
37	C	0.08316	0.043679	0.675145
38	H	0.090094	0.047165	0.937019
39	H	0.090013	0.04712	0.746616
40	C	0.046665	0.525397	0.008446
41	C	0.028193	0.543287	0.00845
42	C	0.028267	0.989047	0.008446
43	H	0.041475	0.975902	0.008456
44	H	0.041343	0.569629	0.00846
45	C	0.102241	0.553258	0.301085
46	N	0.13719	0.570793	0.302187
47	C	0.154949	0.579713	0.341885
48	N	0.137145	0.570768	0.048211
49	C	0.102195	0.553232	0.049244
50	C	0.08316	0.543678	0.008477
51	H	0.090093	0.547163	0.270353
52	H	0.090013	0.54712	0.079952
53	C	0.046665	0.525397	0.34178
54	C	0.028193	0.543287	0.341783
55	C	0.028267	0.989047	0.34178
56	H	0.041475	0.975902	0.34179
57	H	0.041343	0.569629	0.341797
58	C	0.102241	0.553258	0.634416
59	N	0.13719	0.570793	0.635521
60	C	0.154949	0.579713	0.675216
61	N	0.137145	0.570768	0.381543
62	C	0.102195	0.553232	0.382577
63	C	0.08316	0.543678	0.341814
64	H	0.090093	0.547163	0.603688
65	H	0.090013	0.54712	0.413284
66	C	0.046665	0.525397	0.675115
67	C	0.028193	0.543287	0.675115
68	C	0.028267	0.989047	0.675111
69	H	0.041475	0.975902	0.675121
70	H	0.041343	0.569629	0.675128
71	C	0.102241	0.553258	0.967751
72	N	0.13719	0.570793	0.968853
73	C	0.154949	0.579713	0.008551
74	N	0.137145	0.570768	0.714877
75	C	0.102195	0.553232	0.715911
76	C	0.08316	0.543678	0.675145
77	H	0.090093	0.547163	0.937019
78	H	0.090013	0.54712	0.746619
79	C	0.245913	0.09776	0.008635
80	C	0.263571	0.134035	0.008583
81	C	0.24588	0.152621	0.008601
82	C	0.209566	0.134315	0.008571
83	C	0.191235	0.097873	0.008592
84	C	0.209592	0.079776	0.008613
85	H	0.196508	0.147592	0.008521
86	H	0.196551	0.053452	0.008593
87	H	0.289994	0.147232	0.008521
88	C	0.282434	0.08095	0.049226
89	N	0.313359	0.082395	0.047862
90	C	0.328564	0.081462	0.008422
91	N	0.313131	0.082005	0.302372
92	C	0.282234	0.080612	0.301137
93	C	0.266125	0.081541	0.341841
94	H	0.274183	0.084846	0.0798
95	H	0.273671	0.084107	0.270564
96	C	0.311679	0.234911	0.049216
97	N	0.282196	0.204011	0.047857
98	C	0.266053	0.188814	0.008422
99	N	0.282031	0.204229	0.302371
100	C	0.31154	0.235103	0.30113
101	C	0.32858	0.251205	0.341831
102	H	0.323828	0.24316	0.079789
103	H	0.323596	0.243653	0.270554
104	C	0.245913	0.09776	0.341966
105	C	0.263571	0.134035	0.341915
106	C	0.24588	0.152621	0.341932
107	C	0.209566	0.134315	0.341905
108	C	0.191235	0.097873	0.341925
109	C	0.209592	0.079776	0.341946
110	H	0.196508	0.147592	0.341854
111	H	0.196551	0.053452	0.341925
112	H	0.289994	0.147232	0.341854
113	C	0.282434	0.08095	0.38256
114	N	0.313359	0.082395	0.381193
115	C	0.328564	0.081462	0.341756
116	N	0.313131	0.082005	0.635704
117	C	0.282234	0.080612	0.63447
118	C	0.266125	0.081541	0.675176
119	H	0.274183	0.084846	0.413132
120	H	0.273671	0.084107	0.603898
121	C	0.311679	0.234911	0.382549
122	N	0.282196	0.204011	0.38119
123	C	0.266053	0.188814	0.341756
124	N	0.282031	0.204229	0.635704
125	C	0.31154	0.235103	0.634464
126	C	0.32858	0.251205	0.675162
127	H	0.323828	0.24316	0.413122
128	H	0.323596	0.243653	0.603888
129	C	0.245913	0.09776	0.675301
130	C	0.263571	0.134035	0.67525
131	C	0.24588	0.152621	0.675267
132	C	0.209566	0.134315	0.675237
133	C	0.191235	0.097873	0.675257
134	C	0.209592	0.079776	0.675277
135	H	0.196508	0.147592	0.675186
136	H	0.196551	0.053452	0.675257
137	H	0.289994	0.147232	0.675186
138	C	0.282434	0.08095	0.715891
139	N	0.313359	0.082395	0.714528
140	C	0.328564	0.081462	0.675091
141	N	0.313131	0.082005	0.969039
142	C	0.282234	0.080612	0.967802
143	C	0.266125	0.081541	0.008507
144	H	0.274183	0.084846	0.746467
145	H	0.273671	0.084107	0.93723
146	C	0.311679	0.234911	0.715881
147	N	0.282196	0.204011	0.714522
148	C	0.266053	0.188814	0.675091
149	N	0.282031	0.204229	0.969036
150	C	0.31154	0.235103	0.967795
151	C	0.32858	0.251205	0.008497
152	H	0.323828	0.24316	0.746453
153	H	0.323596	0.243653	0.937219
154	C	0.245913	0.59776	0.008635
155	C	0.26357	0.634034	0.008583
156	C	0.24588	0.652621	0.008601
157	C	0.209565	0.634314	0.008571
158	C	0.191235	0.597873	0.008592
159	C	0.209591	0.579775	0.008613
160	H	0.196508	0.647593	0.008521
161	H	0.196551	0.553451	0.008593
162	H	0.289994	0.647231	0.008521
163	C	0.282435	0.580949	0.049226
164	N	0.313359	0.582394	0.047862
165	C	0.328563	0.581461	0.008422
166	N	0.313132	0.582006	0.302372
167	C	0.282233	0.580613	0.301137
168	C	0.266125	0.58154	0.341841
169	H	0.274182	0.584846	0.0798
170	H	0.273669	0.584106	0.270564
171	C	0.311679	0.734911	0.049216
172	N	0.282196	0.704011	0.047857
173	C	0.266052	0.688812	0.008422
174	N	0.282031	0.70423	0.302371
175	C	0.31154	0.735103	0.30113
176	C	0.32858	0.751205	0.341831
177	H	0.323828	0.743159	0.079789
178	H	0.323596	0.743653	0.270554
179	C	0.245913	0.59776	0.341966
180	C	0.26357	0.634034	0.341915
181	C	0.24588	0.652621	0.341932
182	C	0.209565	0.634314	0.341905
183	C	0.191235	0.597873	0.341925
184	C	0.209591	0.579775	0.341946
185	H	0.196508	0.647593	0.341854
186	H	0.196551	0.553451	0.341925
187	H	0.289994	0.647231	0.341854
188	C	0.282435	0.580949	0.38256
189	N	0.313359	0.582394	0.381193
190	C	0.328563	0.581461	0.341756
191	N	0.313132	0.582006	0.635704
192	C	0.282233	0.580613	0.63447
193	C	0.266125	0.58154	0.675176
194	H	0.274182	0.584846	0.413132
195	H	0.273669	0.584106	0.603898
196	C	0.311679	0.734911	0.382549
197	N	0.282196	0.704011	0.38119
198	C	0.266052	0.688812	0.341756
199	N	0.282031	0.70423	0.635704
200	C	0.31154	0.735103	0.634464
201	C	0.32858	0.751205	0.675162
202	H	0.323828	0.743159	0.413122
203	H	0.323596	0.743653	0.603888
204	C	0.245913	0.59776	0.675301
205	C	0.26357	0.634034	0.67525
206	C	0.24588	0.652621	0.675267
207	C	0.209565	0.634314	0.675237
208	C	0.191235	0.597873	0.675257
209	C	0.209591	0.579775	0.675277
210	H	0.196508	0.647593	0.675186
211	H	0.196551	0.553451	0.675257
212	H	0.289994	0.647231	0.675186
213	C	0.282435	0.580949	0.715891
214	N	0.313359	0.582394	0.714528
215	C	0.328563	0.581461	0.675091
216	N	0.313132	0.582006	0.969039
217	C	0.282233	0.580613	0.967802
218	C	0.266125	0.58154	0.008507
219	H	0.274182	0.584846	0.746467
220	H	0.273669	0.584106	0.93723
221	C	0.311679	0.734911	0.715881
222	N	0.282196	0.704011	0.714522
223	C	0.266052	0.688812	0.675091
224	N	0.282031	0.70423	0.969036
225	C	0.31154	0.735103	0.967795
226	C	0.32858	0.751205	0.008497
227	H	0.323828	0.743159	0.746453
228	H	0.323596	0.743653	0.937219
229	C	0.383354	0.133761	0.008568
230	C	0.364771	0.097498	0.008592
231	C	0.383093	0.07951	0.008567
232	H	0.369813	0.053184	0.008521
233	H	0.37014	0.146969	0.008507
234	C	0.365014	0.27141	0.008621
235	C	0.383656	0.253762	0.008607
236	C	0.383335	0.307717	0.008572
237	H	0.370034	0.320752	0.008533
238	H	0.370449	0.227351	0.008572
239	C	0.383354	0.133761	0.341902
240	C	0.364771	0.097498	0.341925
241	C	0.383093	0.07951	0.341898
242	H	0.369813	0.053184	0.341854
243	H	0.37014	0.146969	0.341841
244	C	0.365014	0.27141	0.341953
245	C	0.383656	0.253762	0.341939
246	C	0.383335	0.307717	0.341905
247	H	0.370034	0.320752	0.341864
248	H	0.370449	0.227351	0.341905
249	C	0.383354	0.133761	0.675233
250	C	0.364771	0.097498	0.675257
251	C	0.383093	0.07951	0.675233
252	H	0.369813	0.053184	0.675186
253	H	0.37014	0.146969	0.675172
254	C	0.365014	0.27141	0.675288
255	C	0.383656	0.253762	0.675274
256	C	0.383335	0.307717	0.675237
257	H	0.370034	0.320752	0.675199
258	H	0.370449	0.227351	0.675237
259	C	0.383352	0.633759	0.008568
260	C	0.364771	0.597498	0.008592
261	C	0.383093	0.57951	0.008567
262	H	0.369814	0.553183	0.008521
263	H	0.370139	0.646968	0.008507
264	C	0.365015	0.771411	0.008621
265	C	0.383656	0.753762	0.008607
266	C	0.383333	0.807716	0.008572
267	H	0.370033	0.82075	0.008533
268	H	0.370448	0.727351	0.008572
269	C	0.383352	0.633759	0.341902
270	C	0.364771	0.597498	0.341925
271	C	0.383093	0.57951	0.341898
272	H	0.369814	0.553183	0.341854
273	H	0.370139	0.646968	0.341841
274	C	0.365015	0.771411	0.341953
275	C	0.383656	0.753762	0.341939
276	C	0.383333	0.807716	0.341905
277	H	0.370033	0.82075	0.341864
278	H	0.370448	0.727351	0.341905
279	C	0.383352	0.633759	0.675233
280	C	0.364771	0.597498	0.675257
281	C	0.383093	0.57951	0.675233
282	H	0.369814	0.553183	0.675186
283	H	0.370139	0.646968	0.675172
284	C	0.365015	0.771411	0.675288
285	C	0.383656	0.753762	0.675274
286	C	0.383333	0.807716	0.675237
287	H	0.370033	0.82075	0.675199
288	H	0.370448	0.727351	0.675237
289	C	0.491825	0.025335	0.008446
290	C	0.473933	0.488984	0.008446
291	C	0.4919	0.470588	0.008443
292	H	0.447578	0.47579	0.008453
293	C	0.419643	0.152386	0.008618
294	C	0.419551	0.097625	0.008587
295	C	0.437647	0.134067	0.008606
296	H	0.463983	0.147353	0.008589
297	C	0.419938	0.271446	0.008625
298	C	0.437922	0.307743	0.008589
299	C	0.419789	0.326067	0.008572
300	H	0.464259	0.320796	0.008565
301	C	0.464029	0.053111	0.301084
302	N	0.44657	0.070601	0.302186
303	C	0.437704	0.079493	0.341881
304	N	0.446596	0.070581	0.048208
305	C	0.464054	0.05309	0.049242
306	C	0.473555	0.043557	0.008477
307	H	0.470104	0.047038	0.270353
308	H	0.470143	0.047001	0.07995
309	C	0.464177	0.415033	0.301076
310	N	0.446752	0.380098	0.302174
311	C	0.437906	0.362341	0.341868
312	N	0.446784	0.380139	0.048194
313	C	0.464209	0.415074	0.049232
314	C	0.473695	0.434105	0.00847
315	H	0.470229	0.427176	0.270346
316	H	0.470283	0.427248	0.079941
317	C	0.436498	0.205698	0.049253
318	N	0.43509	0.235189	0.047974
319	C	0.436011	0.251291	0.008539
320	N	0.435367	0.235356	0.30242
321	C	0.436715	0.205838	0.301152
322	C	0.435848	0.188805	0.341834
323	H	0.432639	0.193545	0.079813
324	H	0.433168	0.19378	0.270573
325	C	0.491825	0.025335	0.34178
326	C	0.473933	0.488984	0.34178
327	C	0.4919	0.470588	0.341776
328	H	0.447578	0.47579	0.34179
329	C	0.419643	0.152386	0.341949
330	C	0.419551	0.097625	0.341919
331	C	0.437647	0.134067	0.341939
332	H	0.463983	0.147353	0.341922
333	C	0.419938	0.271446	0.341959
334	C	0.437922	0.307743	0.341922
335	C	0.419789	0.326067	0.341905
336	H	0.464259	0.320796	0.341898
337	C	0.464029	0.053111	0.634416
338	N	0.44657	0.070601	0.635518
339	C	0.437704	0.079493	0.675213
340	N	0.446596	0.070581	0.381539
341	C	0.464054	0.05309	0.382577
342	C	0.473555	0.043557	0.34181
343	H	0.470104	0.047038	0.603684
344	H	0.470143	0.047001	0.413284
345	C	0.464177	0.415033	0.634409
346	N	0.446752	0.380098	0.635508
347	C	0.437906	0.362341	0.675199
348	N	0.446784	0.380139	0.381526
349	C	0.464209	0.415074	0.382566
350	C	0.473695	0.434105	0.341803
351	H	0.470229	0.427176	0.603678
352	H	0.470283	0.427248	0.413274
353	C	0.436498	0.205698	0.382587
354	N	0.43509	0.235189	0.381305
355	C	0.436011	0.251291	0.341871
356	N	0.435367	0.235356	0.635752
357	C	0.436715	0.205838	0.634484
358	C	0.435848	0.188805	0.675165
359	H	0.432639	0.193545	0.413145
360	H	0.433168	0.19378	0.603905
361	C	0.491825	0.025335	0.675115
362	C	0.473933	0.488984	0.675111
363	C	0.4919	0.470588	0.675108
364	H	0.447578	0.47579	0.675121
365	C	0.419643	0.152386	0.675284
366	C	0.419551	0.097625	0.675254
367	C	0.437647	0.134067	0.675271
368	H	0.463983	0.147353	0.675254
369	C	0.419938	0.271446	0.675291
370	C	0.437922	0.307743	0.675254
371	C	0.419789	0.326067	0.675237
372	H	0.464259	0.320796	0.67523
373	C	0.464029	0.053111	0.967751
374	N	0.44657	0.070601	0.968853
375	C	0.437704	0.079493	0.008548
376	N	0.446596	0.070581	0.714874
377	C	0.464054	0.05309	0.715908
378	C	0.473555	0.043557	0.675145
379	H	0.470104	0.047038	0.937019
380	H	0.470143	0.047001	0.746616
381	C	0.464177	0.415033	0.967741
382	N	0.446752	0.380098	0.968839
383	C	0.437906	0.362341	0.008534
384	N	0.446784	0.380139	0.714861
385	C	0.464209	0.415074	0.715898
386	C	0.473695	0.434105	0.675138
387	H	0.470229	0.427176	0.937013
388	H	0.470283	0.427248	0.746606
389	C	0.436498	0.205698	0.715918
390	N	0.43509	0.235189	0.71464
391	C	0.436011	0.251291	0.675206
392	N	0.435367	0.235356	0.969087
393	C	0.436715	0.205838	0.967819
394	C	0.435848	0.188805	0.0085
395	H	0.432639	0.193545	0.746477
396	H	0.433168	0.19378	0.93724
397	C	0.491826	0.525335	0.008446
398	C	0.473932	0.988983	0.008446
399	C	0.4919	0.970586	0.008443
400	H	0.447578	0.975791	0.008453
401	C	0.419644	0.652387	0.008618
402	C	0.41955	0.597624	0.008587
403	C	0.437646	0.634067	0.008606
404	H	0.463981	0.647351	0.008589
405	C	0.419936	0.771444	0.008625
406	C	0.437921	0.807741	0.008589
407	C	0.41979	0.826069	0.008572
408	H	0.464259	0.820794	0.008565
409	C	0.46403	0.553111	0.301084
410	N	0.446571	0.570601	0.302186
411	C	0.437702	0.579492	0.341881
412	N	0.446595	0.57058	0.048208
413	C	0.464053	0.553088	0.049242
414	C	0.473555	0.543557	0.008477
415	H	0.470102	0.547038	0.270353
416	H	0.470145	0.547002	0.07995
417	C	0.464178	0.915034	0.301076
418	N	0.446754	0.880099	0.302174
419	C	0.437906	0.86234	0.341868
420	N	0.446783	0.880138	0.048194
421	C	0.464207	0.915072	0.049232
422	C	0.473693	0.934104	0.00847
423	H	0.47023	0.927177	0.270346
424	H	0.470282	0.927246	0.079942
425	C	0.436498	0.705698	0.049253
426	N	0.435091	0.735188	0.047974
427	C	0.436011	0.751292	0.008539
428	N	0.435366	0.735355	0.30242
429	C	0.436714	0.705836	0.301152
430	C	0.435848	0.688805	0.341834
431	H	0.432639	0.693545	0.079813
432	H	0.433167	0.693779	0.270573
433	C	0.491826	0.525335	0.34178
434	C	0.473932	0.988983	0.34178
435	C	0.4919	0.970586	0.341776
436	H	0.447578	0.975791	0.34179
437	C	0.419644	0.652387	0.341949
438	C	0.41955	0.597624	0.341919
439	C	0.437646	0.634067	0.341939
440	H	0.463981	0.647351	0.341922
441	C	0.419936	0.771444	0.341959
442	C	0.437921	0.807741	0.341922
443	C	0.41979	0.826069	0.341905
444	H	0.464259	0.820794	0.341898
445	C	0.46403	0.553111	0.634416
446	N	0.446571	0.570601	0.635518
447	C	0.437702	0.579492	0.675213
448	N	0.446595	0.57058	0.381539
449	C	0.464053	0.553088	0.382577
450	C	0.473555	0.543557	0.34181
451	H	0.470102	0.547038	0.603684
452	H	0.470145	0.547002	0.413284
453	C	0.464178	0.915034	0.634409
454	N	0.446754	0.880099	0.635508
455	C	0.437906	0.86234	0.675199
456	N	0.446783	0.880138	0.381526
457	C	0.464207	0.915072	0.382566
458	C	0.473693	0.934104	0.341803
459	H	0.47023	0.927177	0.603678
460	H	0.470282	0.927246	0.413274
461	C	0.436498	0.705698	0.382587
462	N	0.435091	0.735188	0.381305
463	C	0.436011	0.751292	0.341871
464	N	0.435366	0.735355	0.635752
465	C	0.436714	0.705836	0.634484
466	C	0.435848	0.688805	0.675165
467	H	0.432639	0.693545	0.413145
468	H	0.433167	0.693779	0.603905
469	C	0.491826	0.525335	0.675115
470	C	0.473932	0.988983	0.675111
471	C	0.4919	0.970586	0.675108
472	H	0.447578	0.975791	0.675121
473	C	0.419644	0.652387	0.675284
474	C	0.41955	0.597624	0.675254
475	C	0.437646	0.634067	0.675271
476	H	0.463981	0.647351	0.675254
477	C	0.419936	0.771444	0.675291
478	C	0.437921	0.807741	0.675254
479	C	0.41979	0.826069	0.675237
480	H	0.464259	0.820794	0.67523
481	C	0.46403	0.553111	0.967751
482	N	0.446571	0.570601	0.968853
483	C	0.437702	0.579492	0.008548
484	N	0.446595	0.57058	0.714874
485	C	0.464053	0.553088	0.715908
486	C	0.473555	0.543557	0.675145
487	H	0.470102	0.547038	0.937019
488	H	0.470145	0.547002	0.746616
489	C	0.464178	0.915034	0.967741
490	N	0.446754	0.880099	0.968839
491	C	0.437906	0.86234	0.008534
492	N	0.446783	0.880138	0.714861
493	C	0.464207	0.915072	0.715898
494	C	0.473693	0.934104	0.675138
495	H	0.47023	0.927177	0.937013
496	H	0.470282	0.927246	0.746606
497	C	0.436498	0.705698	0.715918
498	N	0.435091	0.735188	0.71464
499	C	0.436011	0.751292	0.675206
500	N	0.435366	0.735355	0.969087
501	C	0.436714	0.705836	0.967819
502	C	0.435848	0.688805	0.0085
503	H	0.432639	0.693545	0.746477
504	H	0.433167	0.693779	0.93724
505	C	0.546665	0.025398	0.008446
506	C	0.528192	0.043287	0.00845
507	C	0.991825	0.025335	0.008446
508	C	0.973933	0.488984	0.008446
509	C	0.9919	0.470588	0.008443
510	C	0.528268	0.489049	0.008446
511	H	0.947576	0.47579	0.008453
512	H	0.541474	0.475901	0.008456
513	H	0.541343	0.06963	0.00846
514	C	0.745913	0.09776	0.008635
515	C	0.763569	0.134035	0.008583
516	C	0.745879	0.152621	0.008601
517	C	0.709565	0.134315	0.008571
518	C	0.691234	0.097873	0.008592
519	C	0.709592	0.079776	0.008613
520	H	0.696505	0.147592	0.008521
521	H	0.696551	0.053452	0.008593
522	H	0.789994	0.147232	0.008521
523	C	0.919643	0.152386	0.008618
524	C	0.883352	0.133761	0.008568
525	C	0.864771	0.097498	0.008592
526	C	0.883091	0.07951	0.008567
527	C	0.919549	0.097625	0.008587
528	C	0.937645	0.134067	0.008606
529	H	0.869813	0.053184	0.008521
530	H	0.96398	0.147353	0.008589
531	H	0.870138	0.146969	0.008507
532	C	0.865014	0.27141	0.008621
533	C	0.883656	0.253762	0.008607
534	C	0.919936	0.271446	0.008625
535	C	0.937922	0.307743	0.008589
536	C	0.919789	0.326067	0.008572
537	C	0.883332	0.307717	0.008572
538	H	0.964259	0.320796	0.008565
539	H	0.870034	0.320752	0.008533
540	H	0.870447	0.227351	0.008572
541	C	0.602239	0.053258	0.301085
542	N	0.637189	0.070795	0.302187
543	C	0.654949	0.079714	0.341885
544	N	0.637145	0.070769	0.048211
545	C	0.602193	0.053232	0.049244
546	C	0.583159	0.043679	0.008477
547	H	0.590092	0.047165	0.270353
548	H	0.590011	0.04712	0.079952
549	C	0.964029	0.053111	0.301084
550	N	0.94657	0.070601	0.302186
551	C	0.937702	0.079493	0.341881
552	N	0.946593	0.070581	0.048208
553	C	0.964051	0.05309	0.049242
554	C	0.973555	0.043557	0.008477
555	H	0.970101	0.047038	0.270353
556	H	0.970143	0.047001	0.07995
557	C	0.964175	0.415033	0.301076
558	N	0.946752	0.380098	0.302174
559	C	0.937906	0.362341	0.341868
560	N	0.946782	0.380139	0.048194
561	C	0.964207	0.415074	0.049232
562	C	0.973693	0.434105	0.00847
563	H	0.970227	0.427176	0.270346
564	H	0.970281	0.427248	0.079941
565	C	0.782434	0.08095	0.049226
566	N	0.813357	0.082395	0.047862
567	C	0.828562	0.081462	0.008422
568	N	0.813131	0.082005	0.302372
569	C	0.782231	0.080612	0.301137
570	C	0.766125	0.081541	0.341841
571	H	0.774181	0.084846	0.0798
572	H	0.773669	0.084107	0.270564
573	C	0.936496	0.205698	0.049253
574	N	0.93509	0.235189	0.047974
575	C	0.936011	0.251291	0.008539
576	N	0.935365	0.235356	0.30242
577	C	0.936715	0.205838	0.301152
578	C	0.935848	0.188805	0.341834
579	H	0.932639	0.193545	0.079813
580	H	0.933166	0.19378	0.270573
581	C	0.811677	0.234911	0.049216
582	N	0.782195	0.204011	0.047857
583	C	0.766051	0.188814	0.008422
584	N	0.78203	0.204229	0.302371
585	C	0.811539	0.235103	0.30113
586	C	0.828578	0.251205	0.341831
587	H	0.823827	0.24316	0.079789
588	H	0.823595	0.243653	0.270554
589	C	0.546665	0.025398	0.34178
590	C	0.528192	0.043287	0.341783
591	C	0.991825	0.025335	0.34178
592	C	0.973933	0.488984	0.34178
593	C	0.9919	0.470588	0.341776
594	C	0.528268	0.489049	0.34178
595	H	0.947576	0.47579	0.34179
596	H	0.541474	0.475901	0.34179
597	H	0.541343	0.06963	0.341797
598	C	0.745913	0.09776	0.341966
599	C	0.763569	0.134035	0.341915
600	C	0.745879	0.152621	0.341932
601	C	0.709565	0.134315	0.341905
602	C	0.691234	0.097873	0.341925
603	C	0.709592	0.079776	0.341946
604	H	0.696505	0.147592	0.341854
605	H	0.696551	0.053452	0.341925
606	H	0.789994	0.147232	0.341854
607	C	0.919643	0.152386	0.341949
608	C	0.883352	0.133761	0.341902
609	C	0.864771	0.097498	0.341925
610	C	0.883091	0.07951	0.341898
611	C	0.919549	0.097625	0.341919
612	C	0.937645	0.134067	0.341939
613	H	0.869813	0.053184	0.341854
614	H	0.96398	0.147353	0.341922
615	H	0.870138	0.146969	0.341841
616	C	0.865014	0.27141	0.341953
617	C	0.883656	0.253762	0.341939
618	C	0.919936	0.271446	0.341959
619	C	0.937922	0.307743	0.341922
620	C	0.919789	0.326067	0.341905
621	C	0.883332	0.307717	0.341905
622	H	0.964259	0.320796	0.341898
623	H	0.870034	0.320752	0.341864
624	H	0.870447	0.227351	0.341905
625	C	0.602239	0.053258	0.634416
626	N	0.637189	0.070795	0.635521
627	C	0.654949	0.079714	0.675216
628	N	0.637145	0.070769	0.381543
629	C	0.602193	0.053232	0.382577
630	C	0.583159	0.043679	0.341814
631	H	0.590092	0.047165	0.603688
632	H	0.590011	0.04712	0.413284
633	C	0.964029	0.053111	0.634416
634	N	0.94657	0.070601	0.635518
635	C	0.937702	0.079493	0.675213
636	N	0.946593	0.070581	0.381539
637	C	0.964051	0.05309	0.382577
638	C	0.973555	0.043557	0.34181
639	H	0.970101	0.047038	0.603684
640	H	0.970143	0.047001	0.413284
641	C	0.964175	0.415033	0.634409
642	N	0.946752	0.380098	0.635508
643	C	0.937906	0.362341	0.675199
644	N	0.946782	0.380139	0.381526
645	C	0.964207	0.415074	0.382566
646	C	0.973693	0.434105	0.341803
647	H	0.970227	0.427176	0.603678
648	H	0.970281	0.427248	0.413274
649	C	0.782434	0.08095	0.38256
650	N	0.813357	0.082395	0.381193
651	C	0.828562	0.081462	0.341756
652	N	0.813131	0.082005	0.635704
653	C	0.782231	0.080612	0.63447
654	C	0.766125	0.081541	0.675176
655	H	0.774181	0.084846	0.413132
656	H	0.773669	0.084107	0.603898
657	C	0.936496	0.205698	0.382587
658	N	0.93509	0.235189	0.381305
659	C	0.936011	0.251291	0.341871
660	N	0.935365	0.235356	0.635752
661	C	0.936715	0.205838	0.634484
662	C	0.935848	0.188805	0.675165
663	H	0.932639	0.193545	0.413145
664	H	0.933166	0.19378	0.603905
665	C	0.811677	0.234911	0.382549
666	N	0.782195	0.204011	0.38119
667	C	0.766051	0.188814	0.341756
668	N	0.78203	0.204229	0.635704
669	C	0.811539	0.235103	0.634464
670	C	0.828578	0.251205	0.675162
671	H	0.823827	0.24316	0.413122
672	H	0.823595	0.243653	0.603888
673	C	0.546665	0.025398	0.675115
674	C	0.528192	0.043287	0.675115
675	C	0.991825	0.025335	0.675115
676	C	0.973933	0.488984	0.675111
677	C	0.9919	0.470588	0.675108
678	C	0.528268	0.489049	0.675111
679	H	0.947576	0.47579	0.675121
680	H	0.541474	0.475901	0.675121
681	H	0.541343	0.06963	0.675128
682	C	0.745913	0.09776	0.675301
683	C	0.763569	0.134035	0.67525
684	C	0.745879	0.152621	0.675267
685	C	0.709565	0.134315	0.675237
686	C	0.691234	0.097873	0.675257
687	C	0.709592	0.079776	0.675277
688	H	0.696505	0.147592	0.675186
689	H	0.696551	0.053452	0.675257
690	H	0.789994	0.147232	0.675186
691	C	0.919643	0.152386	0.675284
692	C	0.883352	0.133761	0.675233
693	C	0.864771	0.097498	0.675257
694	C	0.883091	0.07951	0.675233
695	C	0.919549	0.097625	0.675254
696	C	0.937645	0.134067	0.675271
697	H	0.869813	0.053184	0.675186
698	H	0.96398	0.147353	0.675254
699	H	0.870138	0.146969	0.675172
700	C	0.865014	0.27141	0.675288
701	C	0.883656	0.253762	0.675274
702	C	0.919936	0.271446	0.675291
703	C	0.937922	0.307743	0.675254
704	C	0.919789	0.326067	0.675237
705	C	0.883332	0.307717	0.675237
706	H	0.964259	0.320796	0.67523
707	H	0.870034	0.320752	0.675199
708	H	0.870447	0.227351	0.675237
709	C	0.602239	0.053258	0.967751
710	N	0.637189	0.070795	0.968853
711	C	0.654949	0.079714	0.008551
712	N	0.637145	0.070769	0.714877
713	C	0.602193	0.053232	0.715911
714	C	0.583159	0.043679	0.675145
715	H	0.590092	0.047165	0.937019
716	H	0.590011	0.04712	0.746616
717	C	0.964029	0.053111	0.967751
718	N	0.94657	0.070601	0.968853
719	C	0.937702	0.079493	0.008548
720	N	0.946593	0.070581	0.714874
721	C	0.964051	0.05309	0.715908
722	C	0.973555	0.043557	0.675145
723	H	0.970101	0.047038	0.937019
724	H	0.970143	0.047001	0.746616
725	C	0.964175	0.415033	0.967741
726	N	0.946752	0.380098	0.968839
727	C	0.937906	0.362341	0.008534
728	N	0.946782	0.380139	0.714861
729	C	0.964207	0.415074	0.715898
730	C	0.973693	0.434105	0.675138
731	H	0.970227	0.427176	0.937013
732	H	0.970281	0.427248	0.746606
733	C	0.782434	0.08095	0.715891
734	N	0.813357	0.082395	0.714528
735	C	0.828562	0.081462	0.675091
736	N	0.813131	0.082005	0.969039
737	C	0.782231	0.080612	0.967802
738	C	0.766125	0.081541	0.008507
739	H	0.774181	0.084846	0.746467
740	H	0.773669	0.084107	0.93723
741	C	0.936496	0.205698	0.715918
742	N	0.93509	0.235189	0.71464
743	C	0.936011	0.251291	0.675206
744	N	0.935365	0.235356	0.969087
745	C	0.936715	0.205838	0.967819
746	C	0.935848	0.188805	0.0085
747	H	0.932639	0.193545	0.746477
748	H	0.933166	0.19378	0.93724
749	C	0.811677	0.234911	0.715881
750	N	0.782195	0.204011	0.714522
751	C	0.766051	0.188814	0.675091
752	N	0.78203	0.204229	0.969036
753	C	0.811539	0.235103	0.967795
754	C	0.828578	0.251205	0.008497
755	H	0.823827	0.24316	0.746453
756	H	0.823595	0.243653	0.937219
757	C	0.546665	0.525397	0.008446
758	C	0.528193	0.543287	0.00845
759	C	0.991826	0.525335	0.008446
760	C	0.97393	0.988983	0.008446
761	C	0.9919	0.970586	0.008443
762	C	0.528267	0.989047	0.008446
763	H	0.947577	0.975791	0.008453
764	H	0.541474	0.975902	0.008456
765	H	0.541341	0.569629	0.00846
766	C	0.745912	0.59776	0.008635
767	C	0.763568	0.634034	0.008583
768	C	0.745879	0.652621	0.008601
769	C	0.709564	0.634314	0.008571
770	C	0.691234	0.597873	0.008592
771	C	0.709589	0.579775	0.008613
772	H	0.696506	0.647593	0.008521
773	H	0.69655	0.553451	0.008593
774	H	0.789993	0.647231	0.008521
775	C	0.919644	0.652387	0.008618
776	C	0.883351	0.633759	0.008568
777	C	0.86477	0.597498	0.008592
778	C	0.883091	0.57951	0.008567
779	C	0.919548	0.597624	0.008587
780	C	0.937645	0.634067	0.008606
781	H	0.869813	0.553183	0.008521
782	H	0.96398	0.647351	0.008589
783	H	0.870138	0.646968	0.008507
784	C	0.865014	0.771411	0.008621
785	C	0.883656	0.753762	0.008607
786	C	0.919935	0.771444	0.008625
787	C	0.937921	0.807741	0.008589
788	C	0.91979	0.826069	0.008572
789	C	0.883332	0.807716	0.008572
790	H	0.964258	0.820794	0.008565
791	H	0.870031	0.82075	0.008533
792	H	0.870447	0.727351	0.008572
793	C	0.602239	0.553258	0.301085
794	N	0.637189	0.570793	0.302187
795	C	0.654948	0.579713	0.341885
796	N	0.637145	0.570768	0.048211
797	C	0.602193	0.553232	0.049244
798	C	0.583158	0.543678	0.008477
799	H	0.590091	0.547163	0.270353
800	H	0.590011	0.54712	0.079952
801	C	0.964029	0.553111	0.301084
802	N	0.94657	0.570601	0.302186
803	C	0.937701	0.579492	0.341881
804	N	0.946593	0.57058	0.048208
805	C	0.964051	0.553088	0.049242
806	C	0.973555	0.543557	0.008477
807	H	0.970101	0.547038	0.270353
808	H	0.970143	0.547002	0.07995
809	C	0.964176	0.915034	0.301076
810	N	0.946753	0.880099	0.302174
811	C	0.937906	0.86234	0.341868
812	N	0.946781	0.880138	0.048194
813	C	0.964206	0.915072	0.049232
814	C	0.973692	0.934104	0.00847
815	H	0.970228	0.927177	0.270346
816	H	0.97028	0.927246	0.079942
817	C	0.782434	0.580949	0.049226
818	N	0.813356	0.582394	0.047862
819	C	0.828561	0.581461	0.008422
820	N	0.813131	0.582006	0.302372
821	C	0.782232	0.580613	0.301137
822	C	0.766124	0.58154	0.341841
823	H	0.774181	0.584846	0.0798
824	H	0.773668	0.584106	0.270564
825	C	0.936495	0.705698	0.049253
826	N	0.93509	0.735188	0.047974
827	C	0.936011	0.751292	0.008539
828	N	0.935365	0.735355	0.30242
829	C	0.936714	0.705836	0.301152
830	C	0.935848	0.688805	0.341834
831	H	0.932639	0.693545	0.079813
832	H	0.933166	0.693779	0.270573
833	C	0.811677	0.734911	0.049216
834	N	0.782195	0.704011	0.047857
835	C	0.766051	0.688812	0.008422
836	N	0.78203	0.70423	0.302371
837	C	0.811539	0.735103	0.30113
838	C	0.828578	0.751205	0.341831
839	H	0.823827	0.743159	0.079789
840	H	0.823595	0.743653	0.270554
841	C	0.546665	0.525397	0.34178
842	C	0.528193	0.543287	0.341783
843	C	0.991826	0.525335	0.34178
844	C	0.97393	0.988983	0.34178
845	C	0.9919	0.970586	0.341776
846	C	0.528267	0.989047	0.34178
847	H	0.947577	0.975791	0.34179
848	H	0.541474	0.975902	0.34179
849	H	0.541341	0.569629	0.341797
850	C	0.745912	0.59776	0.341966
851	C	0.763568	0.634034	0.341915
852	C	0.745879	0.652621	0.341932
853	C	0.709564	0.634314	0.341905
854	C	0.691234	0.597873	0.341925
855	C	0.709589	0.579775	0.341946
856	H	0.696506	0.647593	0.341854
857	H	0.69655	0.553451	0.341925
858	H	0.789993	0.647231	0.341854
859	C	0.919644	0.652387	0.341949
860	C	0.883351	0.633759	0.341902
861	C	0.86477	0.597498	0.341925
862	C	0.883091	0.57951	0.341898
863	C	0.919548	0.597624	0.341919
864	C	0.937645	0.634067	0.341939
865	H	0.869813	0.553183	0.341854
866	H	0.96398	0.647351	0.341922
867	H	0.870138	0.646968	0.341841
868	C	0.865014	0.771411	0.341953
869	C	0.883656	0.753762	0.341939
870	C	0.919935	0.771444	0.341959
871	C	0.937921	0.807741	0.341922
872	C	0.91979	0.826069	0.341905
873	C	0.883332	0.807716	0.341905
874	H	0.964258	0.820794	0.341898
875	H	0.870031	0.82075	0.341864
876	H	0.870447	0.727351	0.341905
877	C	0.602239	0.553258	0.634416
878	N	0.637189	0.570793	0.635521
879	C	0.654948	0.579713	0.675216
880	N	0.637145	0.570768	0.381543
881	C	0.602193	0.553232	0.382577
882	C	0.583158	0.543678	0.341814
883	H	0.590091	0.547163	0.603688
884	H	0.590011	0.54712	0.413284
885	C	0.964029	0.553111	0.634416
886	N	0.94657	0.570601	0.635518
887	C	0.937701	0.579492	0.675213
888	N	0.946593	0.57058	0.381539
889	C	0.964051	0.553088	0.382577
890	C	0.973555	0.543557	0.34181
891	H	0.970101	0.547038	0.603684
892	H	0.970143	0.547002	0.413284
893	C	0.964176	0.915034	0.634409
894	N	0.946753	0.880099	0.635508
895	C	0.937906	0.86234	0.675199
896	N	0.946781	0.880138	0.381526
897	C	0.964206	0.915072	0.382566
898	C	0.973692	0.934104	0.341803
899	H	0.970228	0.927177	0.603678
900	H	0.97028	0.927246	0.413274
901	C	0.782434	0.580949	0.38256
902	N	0.813356	0.582394	0.381193
903	C	0.828561	0.581461	0.341756
904	N	0.813131	0.582006	0.635704
905	C	0.782232	0.580613	0.63447
906	C	0.766124	0.58154	0.675176
907	H	0.774181	0.584846	0.413132
908	H	0.773668	0.584106	0.603898
909	C	0.936495	0.705698	0.382587
910	N	0.93509	0.735188	0.381305
911	C	0.936011	0.751292	0.341871
912	N	0.935365	0.735355	0.635752
913	C	0.936714	0.705836	0.634484
914	C	0.935848	0.688805	0.675165
915	H	0.932639	0.693545	0.413145
916	H	0.933166	0.693779	0.603905
917	C	0.811677	0.734911	0.382549
918	N	0.782195	0.704011	0.38119
919	C	0.766051	0.688812	0.341756
920	N	0.78203	0.70423	0.635704
921	C	0.811539	0.735103	0.634464
922	C	0.828578	0.751205	0.675162
923	H	0.823827	0.743159	0.413122
924	H	0.823595	0.743653	0.603888
925	C	0.546665	0.525397	0.675115
926	C	0.528193	0.543287	0.675115
927	C	0.991826	0.525335	0.675115
928	C	0.97393	0.988983	0.675111
929	C	0.9919	0.970586	0.675108
930	C	0.528267	0.989047	0.675111
931	H	0.947577	0.975791	0.675121
932	H	0.541474	0.975902	0.675121
933	H	0.541341	0.569629	0.675128
934	C	0.745912	0.59776	0.675301
935	C	0.763568	0.634034	0.67525
936	C	0.745879	0.652621	0.675267
937	C	0.709564	0.634314	0.675237
938	C	0.691234	0.597873	0.675257
939	C	0.709589	0.579775	0.675277
940	H	0.696506	0.647593	0.675186
941	H	0.69655	0.553451	0.675257
942	H	0.789993	0.647231	0.675186
943	C	0.919644	0.652387	0.675284
944	C	0.883351	0.633759	0.675233
945	C	0.86477	0.597498	0.675257
946	C	0.883091	0.57951	0.675233
947	C	0.919548	0.597624	0.675254
948	C	0.937645	0.634067	0.675271
949	H	0.869813	0.553183	0.675186
950	H	0.96398	0.647351	0.675254
951	H	0.870138	0.646968	0.675172
952	C	0.865014	0.771411	0.675288
953	C	0.883656	0.753762	0.675274
954	C	0.919935	0.771444	0.675291
955	C	0.937921	0.807741	0.675254
956	C	0.91979	0.826069	0.675237
957	C	0.883332	0.807716	0.675237
958	H	0.964258	0.820794	0.67523
959	H	0.870031	0.82075	0.675199
960	H	0.870447	0.727351	0.675237
961	C	0.602239	0.553258	0.967751
962	N	0.637189	0.570793	0.968853
963	C	0.654948	0.579713	0.008551
964	N	0.637145	0.570768	0.714877
965	C	0.602193	0.553232	0.715911
966	C	0.583158	0.543678	0.675145
967	H	0.590091	0.547163	0.937019
968	H	0.590011	0.54712	0.746619
969	C	0.964029	0.553111	0.967751
970	N	0.94657	0.570601	0.968853
971	C	0.937701	0.579492	0.008548
972	N	0.946593	0.57058	0.714874
973	C	0.964051	0.553088	0.715908
974	C	0.973555	0.543557	0.675145
975	H	0.970101	0.547038	0.937019
976	H	0.970143	0.547002	0.746616
977	C	0.964176	0.915034	0.967741
978	N	0.946753	0.880099	0.968839
979	C	0.937906	0.86234	0.008534
980	N	0.946781	0.880138	0.714861
981	C	0.964206	0.915072	0.715898
982	C	0.973692	0.934104	0.675138
983	H	0.970228	0.927177	0.937013
984	H	0.97028	0.927246	0.746606
985	C	0.782434	0.580949	0.715891
986	N	0.813356	0.582394	0.714528
987	C	0.828561	0.581461	0.675091
988	N	0.813131	0.582006	0.969039
989	C	0.782232	0.580613	0.967802
990	C	0.766124	0.58154	0.008507
991	H	0.774181	0.584846	0.746467
992	H	0.773668	0.584106	0.93723
993	C	0.936495	0.705698	0.715918
994	N	0.93509	0.735188	0.71464
995	C	0.936011	0.751292	0.675206
996	N	0.935365	0.735355	0.969087
997	C	0.936714	0.705836	0.967819
998	C	0.935848	0.688805	0.0085
999	H	0.932639	0.693545	0.746477
1000	H	0.933166	0.693779	0.93724
1001	C	0.811677	0.734911	0.715881
1002	N	0.782195	0.704011	0.714522
1003	C	0.766051	0.688812	0.675091
1004	N	0.78203	0.70423	0.969036
1005	C	0.811539	0.735103	0.967795
1006	C	0.828578	0.751205	0.008497
1007	H	0.823827	0.743159	0.746453
1008	H	0.823595	0.743653	0.937219
