data_C660H336N144O192_2018-02-15_10:43:42
#******************************************
#
# CIF file created by Zeo++
# Zeo++ is an open source package to
# analyze microporous materials
#
#*******************************************

_cell_length_a		43.4816   
_cell_length_b		43.2766   
_cell_length_c		30.0318   
_cell_angle_alpha		90   
_cell_angle_beta		90   
_cell_angle_gamma		89.9977   

_symmetry_space_group_name_H-M		'P1'
_symmetry_Int_Tables_number		1
_symmetry_cell_setting		Monoclinic

loop_
_symmetry_equiv_pos_as_xyz
'+x,+y,+z'

loop_
_atom_site_label
_atom_site_type_symbol
_atom_site_fract_x
_atom_site_fract_y
_atom_site_fract_z
1	C	0.02862	0.999344	0.288485
2	C	0.027845	0.999134	0.241246
3	C	0.469871	0.999613	0.241784
4	C	0.469576	0.000279	0.289056
5	C	0.440553	0.501437	0.310933
6	C	0.412543	0.501682	0.287055
7	C	0.41368	0.50095	0.24008
8	C	0.441946	0.999808	0.217794
9	C	0.055536	0.998931	0.216776
10	C	0.084003	0.998847	0.238562
11	C	0.08582	0.998875	0.28562
12	C	0.057855	0.999148	0.3098
13	C	0.499769	0.029533	0.009065
14	C	0.499084	0.029226	0.056349
15	C	0.49865	0.471045	0.056666
16	C	0.498853	0.470418	0.009418
17	C	0.498672	0.443145	0.080946
18	C	0.498896	0.414635	0.058926
19	C	0.498878	0.413041	0.011849
20	C	0.998833	0.441169	0.321203
21	C	0.001131	0.058597	0.320454
22	C	0.501736	0.086641	0.011052
23	C	0.500903	0.085646	0.058015
24	C	0.499432	0.05728	0.080345
25	H	0.50197	0.105515	0.076484
26	H	0.499191	0.057251	0.114441
27	H	0.498601	0.443369	0.115045
28	H	0.499014	0.395031	0.077983
29	H	0.998852	0.440478	0.287109
30	H	0.001942	0.059264	0.286373
31	H	0.439875	0.50223	0.011669
32	H	0.393945	0.501837	0.221501
33	H	0.441985	0.999584	0.183698
34	H	0.058655	0.499212	0.010551
35	H	0.05519	0.998801	0.182679
36	H	0.103425	0.998632	0.219317
37	C	0.999214	0.999899	0.315645
38	C	0.498416	0.000209	0.082323
39	H	0.018492	0.500123	0.104297
40	H	0.477704	0.000414	0.103012
41	C	0.99874	0.999067	0.21575
42	H	0.998482	0.478349	0.194871
43	H	0.9988	0.019332	0.193953
44	C	0.998859	0.384924	0.322599
45	C	0.114025	0.998399	0.307821
46	C	0.005276	0.114446	0.322548
47	H	0.021805	0.1166	0.299834
48	H	0.000592	0.384508	0.2896
49	H	0.114578	0.498075	0.007568
50	C	0.384633	0.504837	0.308789
51	H	0.382597	0.520485	0.999544
52	C	0.49551	0.32964	0.334452
53	C	0.495701	0.317167	0.291046
54	C	0.494451	0.284833	0.28412
55	C	0.492929	0.264931	0.321584
56	C	0.49286	0.277205	0.032086
57	C	0.494082	0.309537	0.037847
58	H	0.494006	0.318387	0.069503
59	C	0.491997	0.232382	0.316023
60	C	0.019944	0.215468	0.31631
61	C	0.018814	0.182905	0.319157
62	C	0.490496	0.167149	0.32229
63	C	0.462975	0.184231	0.321535
64	C	0.463312	0.216808	0.318079
65	H	0.038956	0.170868	0.322263
66	H	0.442394	0.173047	0.325452
67	H	0.996711	0.33156	0.264105
68	N	0.435663	0.234143	0.318654
69	N	0.04842	0.231412	0.316206
70	N	0.494705	0.271999	0.240729
71	N	0.491741	0.257114	0.06938
72	O	0.418801	0.227353	0.286128
73	O	0.468259	0.261897	0.092782
74	O	0.472007	0.280979	0.218304
75	O	0.063482	0.226309	0.351164
76	O	0.420788	0.229915	0.354008
77	O	0.515194	0.25994	0.093491
78	O	0.518919	0.278904	0.220184
79	O	0.064546	0.223938	0.283212
80	N	0.489096	0.13783	0.334458
81	N	0.996447	0.359398	0.344018
82	C	0.169236	0.497241	0.295034
83	C	0.189071	0.498325	0.25805
84	C	0.221328	0.496994	0.263185
85	C	0.23393	0.494427	0.306642
86	C	0.21429	0.493435	0.011026
87	C	0.182025	0.494843	0.004742
88	H	0.167879	0.493898	0.031891
89	C	0.26644	0.492899	0.311636
90	C	0.28368	0.020629	0.315239
91	C	0.316142	0.019273	0.312836
92	C	0.331576	0.49094	0.306498
93	C	0.314181	0.463606	0.303339
94	C	0.281708	0.464154	0.306153
95	H	0.328407	0.03945	0.312822
96	H	0.325095	0.443087	0.297089
97	H	0.180047	2.3e-05	0.226621
98	N	0.264177	0.436714	0.30179
99	N	0.268121	0.049289	0.318861
100	N	0.241069	0.498184	0.225617
101	N	0.227327	0.490914	0.054095
102	O	0.270431	0.417796	0.332199
103	O	0.218701	0.466643	0.073356
104	O	0.236247	0.476047	0.199451
105	O	0.273677	0.066513	0.28614
106	O	0.268566	0.423904	0.264781
107	O	0.220385	0.513703	0.077995
108	O	0.237974	0.52308	0.204554
109	O	0.275432	0.063231	0.353988
110	N	0.360998	0.489754	0.295108
111	N	0.139447	0.998032	0.286052
112	C	0.02862	0.999344	0.62182
113	C	0.027845	0.999134	0.57458
114	C	0.469871	0.999613	0.575119
115	C	0.469576	0.000279	0.622389
116	C	0.440553	0.501437	0.644266
117	C	0.412543	0.501682	0.620388
118	C	0.41368	0.50095	0.573415
119	C	0.441946	0.999808	0.551128
120	C	0.055536	0.998931	0.550109
121	C	0.084003	0.998847	0.571896
122	C	0.08582	0.998875	0.618953
123	C	0.057855	0.999148	0.643134
124	C	0.499769	0.029533	0.3424
125	C	0.499084	0.029226	0.389683
126	C	0.49865	0.471045	0.389999
127	C	0.498853	0.470418	0.342753
128	C	0.498672	0.443145	0.41428
129	C	0.498896	0.414635	0.39226
130	C	0.498878	0.413041	0.345184
131	C	0.998833	0.441169	0.654535
132	C	0.001131	0.058597	0.653789
133	C	0.501736	0.086641	0.344388
134	C	0.500903	0.085646	0.391348
135	C	0.499432	0.05728	0.413677
136	H	0.50197	0.105515	0.409818
137	H	0.499191	0.057251	0.447775
138	H	0.498601	0.443369	0.448377
139	H	0.499014	0.395031	0.411317
140	H	0.998852	0.440478	0.620445
141	H	0.001942	0.059264	0.619705
142	H	0.439875	0.50223	0.345004
143	H	0.393945	0.501837	0.554834
144	H	0.441985	0.999584	0.517031
145	H	0.058655	0.499212	0.343885
146	H	0.05519	0.998801	0.516012
147	H	0.103425	0.998632	0.55265
148	C	0.999214	0.999899	0.648978
149	C	0.498416	0.000209	0.415655
150	H	0.018492	0.500123	0.437632
151	H	0.477704	0.000414	0.436347
152	C	0.99874	0.999067	0.549084
153	H	0.998482	0.478349	0.528206
154	H	0.9988	0.019332	0.527287
155	C	0.998859	0.384924	0.655934
156	C	0.114025	0.998399	0.641156
157	C	0.005276	0.114446	0.65588
158	H	0.021805	0.1166	0.633168
159	H	0.000592	0.384508	0.622935
160	H	0.114578	0.498075	0.340901
161	C	0.384633	0.504837	0.642122
162	H	0.382597	0.520485	0.332878
163	C	0.49551	0.32964	0.667784
164	C	0.495701	0.317167	0.62438
165	C	0.494451	0.284833	0.617454
166	C	0.492929	0.264931	0.654918
167	C	0.49286	0.277205	0.365419
168	C	0.494082	0.309537	0.371179
169	H	0.494006	0.318387	0.402836
170	C	0.491997	0.232382	0.649357
171	C	0.019944	0.215468	0.649644
172	C	0.018814	0.182905	0.652491
173	C	0.490496	0.167149	0.655624
174	C	0.462975	0.184231	0.654868
175	C	0.463312	0.216808	0.651412
176	H	0.038956	0.170868	0.655597
177	H	0.442394	0.173047	0.658787
178	H	0.996711	0.33156	0.597439
179	N	0.435663	0.234143	0.651988
180	N	0.04842	0.231412	0.64954
181	N	0.494705	0.271999	0.574064
182	N	0.491741	0.257114	0.402712
183	O	0.418801	0.227353	0.619462
184	O	0.468259	0.261897	0.426114
185	O	0.472007	0.280979	0.551638
186	O	0.063482	0.226309	0.684497
187	O	0.420788	0.229915	0.68734
188	O	0.515194	0.25994	0.426824
189	O	0.518919	0.278904	0.553519
190	O	0.064546	0.223938	0.616545
191	N	0.489096	0.13783	0.667791
192	N	0.996447	0.359398	0.677354
193	C	0.169236	0.497241	0.628366
194	C	0.189071	0.498325	0.591385
195	C	0.221328	0.496994	0.59652
196	C	0.23393	0.494427	0.639977
197	C	0.21429	0.493435	0.344361
198	C	0.182025	0.494843	0.338074
199	H	0.167879	0.493898	0.365226
200	C	0.26644	0.492899	0.644972
201	C	0.28368	0.020629	0.648571
202	C	0.316142	0.019273	0.646171
203	C	0.331576	0.49094	0.639831
204	C	0.314181	0.463606	0.636674
205	C	0.281708	0.464154	0.639488
206	H	0.328407	0.03945	0.646154
207	H	0.325095	0.443087	0.630424
208	H	0.180047	2.3e-05	0.559956
209	N	0.264177	0.436714	0.635122
210	N	0.268121	0.049289	0.652194
211	N	0.241069	0.498184	0.55895
212	N	0.227327	0.490914	0.387429
213	O	0.270431	0.417796	0.665533
214	O	0.218701	0.466643	0.406688
215	O	0.236247	0.476047	0.532784
216	O	0.273677	0.066513	0.619476
217	O	0.268566	0.423904	0.598115
218	O	0.220385	0.513703	0.41133
219	O	0.237974	0.52308	0.537889
220	O	0.275432	0.063231	0.68732
221	N	0.360998	0.489754	0.628443
222	N	0.139447	0.998032	0.619386
223	C	0.02862	0.999344	0.955153
224	C	0.027845	0.999134	0.907913
225	C	0.469871	0.999613	0.908452
226	C	0.469576	0.000279	0.955725
227	C	0.440553	0.501437	0.977599
228	C	0.412543	0.501682	0.953724
229	C	0.41368	0.50095	0.906747
230	C	0.441946	0.999808	0.884461
231	C	0.055536	0.998931	0.883442
232	C	0.084003	0.998847	0.905229
233	C	0.08582	0.998875	0.952289
234	C	0.057855	0.999148	0.976467
235	C	0.499769	0.029533	0.675733
236	C	0.499084	0.029226	0.723016
237	C	0.49865	0.471045	0.723332
238	C	0.498853	0.470418	0.676086
239	C	0.498672	0.443145	0.747613
240	C	0.498896	0.414635	0.725593
241	C	0.498878	0.413041	0.678516
242	C	0.998833	0.441169	0.987871
243	C	0.001131	0.058597	0.987122
244	C	0.501736	0.086641	0.677721
245	C	0.500903	0.085646	0.724684
246	C	0.499432	0.05728	0.747014
247	H	0.50197	0.105515	0.743151
248	H	0.499191	0.057251	0.781107
249	H	0.498601	0.443369	0.781713
250	H	0.499014	0.395031	0.744649
251	H	0.998852	0.440478	0.953777
252	H	0.001942	0.059264	0.953042
253	H	0.439875	0.50223	0.678337
254	H	0.393945	0.501837	0.88817
255	H	0.441985	0.999584	0.850364
256	H	0.058655	0.499212	0.677218
257	H	0.05519	0.998801	0.849345
258	H	0.103425	0.998632	0.885986
259	C	0.999214	0.999899	0.982314
260	C	0.498416	0.000209	0.748992
261	H	0.018492	0.500123	0.770965
262	H	0.477704	0.000414	0.76968
263	C	0.99874	0.999067	0.88242
264	H	0.998482	0.478349	0.861539
265	H	0.9988	0.019332	0.86062
266	C	0.998859	0.384924	0.989266
267	C	0.114025	0.998399	0.974489
268	C	0.005276	0.114446	0.989216
269	H	0.021805	0.1166	0.966504
270	H	0.000592	0.384508	0.956268
271	H	0.114578	0.498075	0.674234
272	C	0.384633	0.504837	0.975458
273	H	0.382597	0.520485	0.666213
274	C	0.49551	0.32964	0.001117
275	C	0.495701	0.317167	0.957713
276	C	0.494451	0.284833	0.950787
277	C	0.492929	0.264931	0.988251
278	C	0.49286	0.277205	0.698755
279	C	0.494082	0.309537	0.704515
280	H	0.494006	0.318387	0.736172
281	C	0.491997	0.232382	0.98269
282	C	0.019944	0.215468	0.982976
283	C	0.018814	0.182905	0.985823
284	C	0.490496	0.167149	0.988957
285	C	0.462975	0.184231	0.988204
286	C	0.463312	0.216808	0.984748
287	H	0.038956	0.170868	0.98893
288	H	0.442394	0.173047	0.99212
289	H	0.996711	0.33156	0.930772
290	N	0.435663	0.234143	0.985321
291	N	0.04842	0.231412	0.982873
292	N	0.494705	0.271999	0.907397
293	N	0.491741	0.257114	0.736049
294	O	0.418801	0.227353	0.952795
295	O	0.468259	0.261897	0.75945
296	O	0.472007	0.280979	0.88497
297	O	0.063482	0.226309	0.017829
298	O	0.420788	0.229915	0.020673
299	O	0.515194	0.25994	0.76016
300	O	0.518919	0.278904	0.886852
301	O	0.064546	0.223938	0.949878
302	N	0.489096	0.13783	0.001123
303	N	0.996447	0.359398	0.010686
304	C	0.169236	0.497241	0.961702
305	C	0.189071	0.498325	0.924718
306	C	0.221328	0.496994	0.929853
307	C	0.23393	0.494427	0.97331
308	C	0.21429	0.493435	0.677694
309	C	0.182025	0.494843	0.671411
310	H	0.167879	0.493898	0.698558
311	C	0.26644	0.492899	0.978305
312	C	0.28368	0.020629	0.981908
313	C	0.316142	0.019273	0.979503
314	C	0.331576	0.49094	0.973167
315	C	0.314181	0.463606	0.970007
316	C	0.281708	0.464154	0.972821
317	H	0.328407	0.03945	0.97949
318	H	0.325095	0.443087	0.963757
319	H	0.180047	2.3e-05	0.893288
320	N	0.264177	0.436714	0.968459
321	N	0.268121	0.049289	0.985527
322	N	0.241069	0.498184	0.892286
323	N	0.227327	0.490914	0.720761
324	O	0.270431	0.417796	0.998866
325	O	0.218701	0.466643	0.740024
326	O	0.236247	0.476047	0.86612
327	O	0.273677	0.066513	0.952808
328	O	0.268566	0.423904	0.931448
329	O	0.220385	0.513703	0.744663
330	O	0.237974	0.52308	0.871222
331	O	0.275432	0.063231	0.020654
332	N	0.360998	0.489754	0.961776
333	N	0.139447	0.998032	0.952719
334	C	0.02862	0.499344	0.288485
335	C	0.027845	0.499134	0.241246
336	C	0.469871	0.499612	0.241784
337	C	0.469575	0.500277	0.289056
338	C	0.440552	0.001437	0.310933
339	C	0.412543	0.001683	0.287055
340	C	0.413679	0.00095	0.24008
341	C	0.441944	0.499808	0.217794
342	C	0.055536	0.49893	0.216776
343	C	0.084003	0.498847	0.238562
344	C	0.08582	0.498875	0.28562
345	C	0.057855	0.499148	0.3098
346	C	0.49977	0.529533	0.009065
347	C	0.499085	0.529226	0.056349
348	C	0.498649	0.971045	0.056666
349	C	0.498851	0.970419	0.009418
350	C	0.49867	0.943145	0.080946
351	C	0.498897	0.914633	0.058925
352	C	0.498879	0.913039	0.011849
353	C	0.998832	0.94117	0.321203
354	C	0.001131	0.558598	0.320454
355	C	0.501736	0.586641	0.011052
356	C	0.500902	0.585647	0.058015
357	C	0.499433	0.557281	0.080345
358	H	0.50197	0.605515	0.076484
359	H	0.499189	0.557251	0.114441
360	H	0.498601	0.943369	0.115045
361	H	0.499015	0.895031	0.077983
362	H	0.998853	0.940476	0.287109
363	H	0.001942	0.559263	0.286373
364	H	0.439876	0.002231	0.011669
365	H	0.393944	0.001836	0.221501
366	H	0.441986	0.499584	0.183698
367	H	0.058654	0.999212	0.010551
368	H	0.05519	0.498801	0.182679
369	H	0.103425	0.498635	0.219317
370	C	0.999213	0.499899	0.315645
371	C	0.498414	0.500208	0.082323
372	H	0.018492	0.000124	0.104297
373	H	0.477702	0.500414	0.103012
374	C	0.998739	0.499067	0.215751
375	H	0.998483	0.978347	0.194871
376	H	0.9988	0.519332	0.193953
377	C	0.998859	0.884924	0.322599
378	C	0.114025	0.498399	0.307821
379	C	0.005276	0.614445	0.322548
380	H	0.021805	0.616599	0.299835
381	H	0.000592	0.884508	0.2896
382	H	0.114578	0.998076	0.007568
383	C	0.384632	0.004838	0.308789
384	H	0.382596	0.020485	0.999544
385	C	0.49551	0.82964	0.334452
386	C	0.495702	0.817165	0.291046
387	C	0.49445	0.784833	0.28412
388	C	0.49293	0.764931	0.321584
389	C	0.492861	0.777206	0.032086
390	C	0.494083	0.809535	0.037847
391	H	0.494007	0.818387	0.069503
392	C	0.491998	0.73238	0.316023
393	C	0.019944	0.715468	0.31631
394	C	0.018814	0.682905	0.319158
395	C	0.490496	0.667148	0.32229
396	C	0.462976	0.684231	0.321535
397	C	0.463313	0.716808	0.318079
398	H	0.038956	0.670869	0.322263
399	H	0.442395	0.673048	0.325452
400	H	0.996709	0.831561	0.264105
401	N	0.435663	0.734141	0.318654
402	N	0.048421	0.731409	0.316206
403	N	0.494703	0.771999	0.240729
404	N	0.491741	0.757112	0.06938
405	O	0.418801	0.727352	0.286128
406	O	0.46826	0.761897	0.092782
407	O	0.472006	0.780979	0.218304
408	O	0.063482	0.72631	0.351164
409	O	0.420788	0.729914	0.354008
410	O	0.515195	0.75994	0.093491
411	O	0.51892	0.778904	0.220184
412	O	0.064547	0.723937	0.283212
413	N	0.489097	0.63783	0.334458
414	N	0.996448	0.859395	0.344018
415	C	0.169236	0.997239	0.295034
416	C	0.189071	0.998325	0.25805
417	C	0.221328	0.996994	0.263185
418	C	0.233931	0.994427	0.306642
419	C	0.21429	0.993433	0.011026
420	C	0.182025	0.994843	0.004742
421	H	0.167879	0.993898	0.031891
422	C	0.266439	0.9929	0.311636
423	C	0.283681	0.520628	0.315239
424	C	0.316141	0.519274	0.312836
425	C	0.331577	0.99094	0.306498
426	C	0.314182	0.963607	0.303339
427	C	0.281706	0.964154	0.306153
428	H	0.328407	0.539451	0.312822
429	H	0.325093	0.943087	0.297089
430	H	0.180047	0.500023	0.226621
431	N	0.264176	0.936714	0.30179
432	N	0.268119	0.54929	0.318861
433	N	0.241069	0.998184	0.225617
434	N	0.227327	0.990915	0.054095
435	O	0.270432	0.917797	0.332199
436	O	0.218701	0.966643	0.073356
437	O	0.236245	0.976047	0.199451
438	O	0.273677	0.566512	0.28614
439	O	0.268564	0.923904	0.264781
440	O	0.220385	0.013702	0.077995
441	O	0.237974	0.023081	0.204554
442	O	0.27543	0.563231	0.353988
443	N	0.360999	0.989752	0.295108
444	N	0.139447	0.498031	0.286052
445	C	0.02862	0.499344	0.62182
446	C	0.027845	0.499134	0.57458
447	C	0.469871	0.499612	0.575119
448	C	0.469575	0.500277	0.622389
449	C	0.440552	0.001437	0.644266
450	C	0.412543	0.001683	0.620388
451	C	0.413679	0.00095	0.573415
452	C	0.441944	0.499808	0.551128
453	C	0.055536	0.49893	0.550109
454	C	0.084003	0.498847	0.571896
455	C	0.08582	0.498875	0.618953
456	C	0.057855	0.499148	0.643134
457	C	0.49977	0.529533	0.3424
458	C	0.499085	0.529226	0.389683
459	C	0.498649	0.971045	0.389999
460	C	0.498851	0.970419	0.342753
461	C	0.49867	0.943145	0.41428
462	C	0.498897	0.914633	0.39226
463	C	0.498879	0.913039	0.345184
464	C	0.998832	0.94117	0.654535
465	C	0.001131	0.558598	0.653789
466	C	0.501736	0.586641	0.344388
467	C	0.500902	0.585647	0.391348
468	C	0.499433	0.557281	0.413677
469	H	0.50197	0.605515	0.409818
470	H	0.499189	0.557251	0.447775
471	H	0.498601	0.943369	0.448377
472	H	0.499015	0.895031	0.411317
473	H	0.998853	0.940476	0.620445
474	H	0.001942	0.559263	0.619705
475	H	0.439876	0.002231	0.345004
476	H	0.393944	0.001836	0.554834
477	H	0.441986	0.499584	0.517031
478	H	0.058654	0.999212	0.343885
479	H	0.05519	0.498801	0.516012
480	H	0.103425	0.498635	0.55265
481	C	0.999213	0.499899	0.648978
482	C	0.498414	0.500208	0.415655
483	H	0.018492	0.000124	0.437632
484	H	0.477702	0.500414	0.436347
485	C	0.998739	0.499067	0.549084
486	H	0.998483	0.978347	0.528206
487	H	0.9988	0.519332	0.527287
488	C	0.998859	0.884924	0.655934
489	C	0.114025	0.498399	0.641156
490	C	0.005276	0.614445	0.65588
491	H	0.021805	0.616599	0.633168
492	H	0.000592	0.884508	0.622935
493	H	0.114578	0.998076	0.340901
494	C	0.384632	0.004838	0.642122
495	H	0.382596	0.020485	0.332878
496	C	0.49551	0.82964	0.667784
497	C	0.495702	0.817165	0.62438
498	C	0.49445	0.784833	0.617454
499	C	0.49293	0.764931	0.654918
500	C	0.492861	0.777206	0.365419
501	C	0.494083	0.809535	0.371179
502	H	0.494007	0.818387	0.402836
503	C	0.491998	0.73238	0.649357
504	C	0.019944	0.715468	0.649644
505	C	0.018814	0.682905	0.652491
506	C	0.490496	0.667148	0.655624
507	C	0.462976	0.684231	0.654868
508	C	0.463313	0.716808	0.651412
509	H	0.038956	0.670869	0.655597
510	H	0.442395	0.673048	0.658787
511	H	0.996709	0.831561	0.597439
512	N	0.435663	0.734141	0.651988
513	N	0.048421	0.731409	0.64954
514	N	0.494703	0.771999	0.574064
515	N	0.491741	0.757112	0.402712
516	O	0.418801	0.727352	0.619462
517	O	0.46826	0.761897	0.426114
518	O	0.472006	0.780979	0.551638
519	O	0.063482	0.72631	0.684497
520	O	0.420788	0.729914	0.68734
521	O	0.515195	0.75994	0.426824
522	O	0.51892	0.778904	0.553519
523	O	0.064547	0.723937	0.616545
524	N	0.489097	0.63783	0.667791
525	N	0.996448	0.859395	0.677354
526	C	0.169236	0.997239	0.628366
527	C	0.189071	0.998325	0.591385
528	C	0.221328	0.996994	0.59652
529	C	0.233931	0.994427	0.639977
530	C	0.21429	0.993433	0.344361
531	C	0.182025	0.994843	0.338074
532	H	0.167879	0.993898	0.365226
533	C	0.266439	0.9929	0.644972
534	C	0.283681	0.520628	0.648571
535	C	0.316141	0.519274	0.646171
536	C	0.331577	0.99094	0.639831
537	C	0.314182	0.963607	0.636674
538	C	0.281706	0.964154	0.639488
539	H	0.328407	0.539451	0.646154
540	H	0.325093	0.943087	0.630424
541	H	0.180047	0.500023	0.559956
542	N	0.264176	0.936714	0.635122
543	N	0.268119	0.54929	0.652194
544	N	0.241069	0.998184	0.55895
545	N	0.227327	0.990915	0.387429
546	O	0.270432	0.917797	0.665533
547	O	0.218701	0.966643	0.406688
548	O	0.236245	0.976047	0.532784
549	O	0.273677	0.566512	0.619476
550	O	0.268564	0.923904	0.598115
551	O	0.220385	0.013702	0.41133
552	O	0.237974	0.023081	0.537889
553	O	0.27543	0.563231	0.68732
554	N	0.360999	0.989752	0.628443
555	N	0.139447	0.498031	0.619386
556	C	0.02862	0.499344	0.955153
557	C	0.027845	0.499134	0.907913
558	C	0.469871	0.499612	0.908452
559	C	0.469575	0.500277	0.955725
560	C	0.440552	0.001437	0.977599
561	C	0.412543	0.001683	0.953724
562	C	0.413679	0.00095	0.906747
563	C	0.441944	0.499808	0.884461
564	C	0.055536	0.49893	0.883442
565	C	0.084003	0.498847	0.905229
566	C	0.08582	0.498875	0.952289
567	C	0.057855	0.499148	0.976467
568	C	0.49977	0.529533	0.675733
569	C	0.499085	0.529226	0.723016
570	C	0.498649	0.971045	0.723332
571	C	0.498851	0.970419	0.676086
572	C	0.49867	0.943145	0.747613
573	C	0.498897	0.914633	0.725593
574	C	0.498879	0.913039	0.678516
575	C	0.998832	0.94117	0.987871
576	C	0.001131	0.558598	0.987122
577	C	0.501736	0.586641	0.677721
578	C	0.500902	0.585647	0.724684
579	C	0.499433	0.557281	0.747014
580	H	0.50197	0.605515	0.743151
581	H	0.499189	0.557251	0.781107
582	H	0.498601	0.943369	0.781713
583	H	0.499015	0.895031	0.744649
584	H	0.998853	0.940476	0.953777
585	H	0.001942	0.559263	0.953042
586	H	0.439876	0.002231	0.678337
587	H	0.393944	0.001836	0.88817
588	H	0.441986	0.499584	0.850364
589	H	0.058654	0.999212	0.677218
590	H	0.05519	0.498801	0.849345
591	H	0.103425	0.498635	0.885986
592	C	0.999213	0.499899	0.982314
593	C	0.498414	0.500208	0.748992
594	H	0.018492	0.000124	0.770965
595	H	0.477702	0.500414	0.76968
596	C	0.998739	0.499067	0.88242
597	H	0.998483	0.978347	0.861539
598	H	0.9988	0.519332	0.86062
599	C	0.998859	0.884924	0.989266
600	C	0.114025	0.498399	0.974489
601	C	0.005276	0.614445	0.989216
602	H	0.021805	0.616599	0.966504
603	H	0.000592	0.884508	0.956268
604	H	0.114578	0.998076	0.674234
605	C	0.384632	0.004838	0.975458
606	H	0.382596	0.020485	0.666213
607	C	0.49551	0.82964	0.001117
608	C	0.495702	0.817165	0.957713
609	C	0.49445	0.784833	0.950787
610	C	0.49293	0.764931	0.988251
611	C	0.492861	0.777206	0.698755
612	C	0.494083	0.809535	0.704515
613	H	0.494007	0.818387	0.736172
614	C	0.491998	0.73238	0.98269
615	C	0.019944	0.715468	0.982976
616	C	0.018814	0.682905	0.985827
617	C	0.490496	0.667148	0.988957
618	C	0.462976	0.684231	0.988204
619	C	0.463313	0.716808	0.984748
620	H	0.038956	0.670869	0.98893
621	H	0.442395	0.673048	0.99212
622	H	0.996709	0.831561	0.930772
623	N	0.435663	0.734141	0.985321
624	N	0.048421	0.731409	0.982873
625	N	0.494703	0.771999	0.907397
626	N	0.491741	0.757112	0.736049
627	O	0.418801	0.727352	0.952795
628	O	0.46826	0.761897	0.75945
629	O	0.472006	0.780979	0.88497
630	O	0.063482	0.72631	0.017829
631	O	0.420788	0.729914	0.020673
632	O	0.515195	0.75994	0.76016
633	O	0.51892	0.778904	0.886852
634	O	0.064547	0.723937	0.949878
635	N	0.489097	0.63783	0.001123
636	N	0.996448	0.859395	0.010686
637	C	0.169236	0.997239	0.961702
638	C	0.189071	0.998325	0.924718
639	C	0.221328	0.996994	0.929853
640	C	0.233931	0.994427	0.97331
641	C	0.21429	0.993433	0.677694
642	C	0.182025	0.994843	0.671411
643	H	0.167879	0.993898	0.698558
644	C	0.266439	0.9929	0.978305
645	C	0.283681	0.520628	0.981908
646	C	0.316141	0.519274	0.979503
647	C	0.331577	0.99094	0.973167
648	C	0.314182	0.963607	0.970007
649	C	0.281706	0.964154	0.972821
650	H	0.328407	0.539451	0.97949
651	H	0.325093	0.943087	0.963757
652	H	0.180047	0.500023	0.893288
653	N	0.264176	0.936714	0.968459
654	N	0.268119	0.54929	0.985527
655	N	0.241069	0.998184	0.892286
656	N	0.227327	0.990915	0.720761
657	O	0.270432	0.917797	0.998866
658	O	0.218701	0.966643	0.740024
659	O	0.236245	0.976047	0.86612
660	O	0.273677	0.566512	0.952808
661	O	0.268564	0.923904	0.931448
662	O	0.220385	0.013702	0.744663
663	O	0.237974	0.023081	0.871222
664	O	0.27543	0.563231	0.020654
665	N	0.360999	0.989752	0.961776
666	N	0.139447	0.498031	0.952719
667	C	0.528621	0.999344	0.288485
668	C	0.527846	0.999134	0.241246
669	C	0.969871	0.999613	0.241784
670	C	0.969577	0.000279	0.289056
671	C	0.940554	0.501437	0.310933
672	C	0.912544	0.501682	0.287055
673	C	0.913678	0.50095	0.24008
674	C	0.941947	0.999808	0.217794
675	C	0.555536	0.998931	0.216776
676	C	0.584003	0.998847	0.238562
677	C	0.58582	0.998875	0.28562
678	C	0.557856	0.999148	0.3098
679	C	0.99977	0.029533	0.009065
680	C	0.999085	0.029226	0.056349
681	C	0.998651	0.471045	0.056666
682	C	0.998853	0.470418	0.009418
683	C	0.99867	0.443145	0.080946
684	C	0.998897	0.414635	0.058926
685	C	0.998878	0.413041	0.011849
686	C	0.498833	0.441169	0.321203
687	C	0.501132	0.058597	0.320454
688	C	0.001736	0.086641	0.011052
689	C	0.000902	0.085646	0.058015
690	C	0.999433	0.05728	0.080345
691	H	0.001969	0.105515	0.076484
692	H	0.999189	0.057251	0.114441
693	H	0.998601	0.443369	0.115045
694	H	0.999015	0.395031	0.077983
695	H	0.498851	0.440478	0.287109
696	H	0.501942	0.059264	0.286373
697	H	0.939875	0.50223	0.011669
698	H	0.893945	0.501837	0.221501
699	H	0.941986	0.999584	0.183698
700	H	0.558654	0.499212	0.010551
701	H	0.555191	0.998801	0.182679
702	H	0.603425	0.998632	0.219317
703	C	0.499214	0.999899	0.315645
704	C	0.998416	0.000209	0.082323
705	H	0.518492	0.500123	0.104297
706	H	0.977704	0.000414	0.103012
707	C	0.498739	0.999067	0.21575
708	H	0.498482	0.478349	0.194871
709	H	0.498799	0.019332	0.193953
710	C	0.498858	0.384924	0.322599
711	C	0.614025	0.998399	0.307821
712	C	0.505276	0.114446	0.322548
713	H	0.521805	0.1166	0.299834
714	H	0.500592	0.384508	0.2896
715	H	0.614579	0.498075	0.007568
716	C	0.884633	0.504837	0.308789
717	H	0.882595	0.520485	0.999544
718	C	0.99551	0.32964	0.334452
719	C	0.995701	0.317167	0.291046
720	C	0.994449	0.284833	0.28412
721	C	0.99293	0.264931	0.321584
722	C	0.992861	0.277205	0.032086
723	C	0.994083	0.309537	0.037847
724	H	0.994006	0.318387	0.069503
725	C	0.991998	0.232382	0.316023
726	C	0.519945	0.215468	0.31631
727	C	0.518815	0.182905	0.319157
728	C	0.990496	0.167149	0.32229
729	C	0.962976	0.184231	0.321535
730	C	0.963312	0.216808	0.318079
731	H	0.538957	0.170868	0.322263
732	H	0.942395	0.173047	0.325452
733	H	0.49671	0.33156	0.264105
734	N	0.935663	0.234143	0.318654
735	N	0.548421	0.231412	0.316206
736	N	0.994705	0.271999	0.240729
737	N	0.991741	0.257114	0.06938
738	O	0.918801	0.227353	0.286128
739	O	0.96826	0.261897	0.092782
740	O	0.972008	0.280979	0.218304
741	O	0.563483	0.226309	0.351164
742	O	0.920788	0.229915	0.354008
743	O	0.015194	0.25994	0.093491
744	O	0.01892	0.278904	0.220184
745	O	0.564548	0.223938	0.283212
746	N	0.989097	0.13783	0.334458
747	N	0.496449	0.359398	0.344018
748	C	0.669236	0.497241	0.295034
749	C	0.689072	0.498325	0.25805
750	C	0.72133	0.496994	0.263185
751	C	0.733931	0.494427	0.306642
752	C	0.71429	0.493435	0.011026
753	C	0.682026	0.494843	0.004742
754	H	0.66788	0.493898	0.031891
755	C	0.766441	0.492899	0.311636
756	C	0.783681	0.020629	0.315239
757	C	0.816143	0.019273	0.312836
758	C	0.831577	0.49094	0.306498
759	C	0.814182	0.463606	0.303339
760	C	0.781706	0.464154	0.306153
761	H	0.828407	0.03945	0.312822
762	H	0.825095	0.443087	0.297089
763	H	0.680047	2.3e-05	0.226621
764	N	0.764178	0.436714	0.30179
765	N	0.768119	0.049289	0.318861
766	N	0.741069	0.498184	0.225617
767	N	0.727328	0.490914	0.054095
768	O	0.770432	0.417796	0.332199
769	O	0.718702	0.466643	0.073356
770	O	0.736247	0.476047	0.199451
771	O	0.773677	0.066513	0.28614
772	O	0.768566	0.423904	0.264781
773	O	0.720386	0.513703	0.077995
774	O	0.737975	0.52308	0.204554
775	O	0.775432	0.063231	0.353988
776	N	0.860998	0.489754	0.295108
777	N	0.639447	0.998032	0.286052
778	C	0.528621	0.999344	0.62182
779	C	0.527846	0.999134	0.57458
780	C	0.969871	0.999613	0.575119
781	C	0.969577	0.000279	0.622389
782	C	0.940554	0.501437	0.644266
783	C	0.912544	0.501682	0.620388
784	C	0.913678	0.50095	0.573415
785	C	0.941947	0.999808	0.551128
786	C	0.555536	0.998931	0.550109
787	C	0.584003	0.998847	0.571896
788	C	0.58582	0.998875	0.618953
789	C	0.557856	0.999148	0.643134
790	C	0.99977	0.029533	0.3424
791	C	0.999085	0.029226	0.389683
792	C	0.998651	0.471045	0.389999
793	C	0.998853	0.470418	0.342753
794	C	0.99867	0.443145	0.41428
795	C	0.998897	0.414635	0.39226
796	C	0.998878	0.413041	0.345184
797	C	0.498833	0.441169	0.654535
798	C	0.501132	0.058597	0.653789
799	C	0.001736	0.086641	0.344388
800	C	0.000902	0.085646	0.391348
801	C	0.999433	0.05728	0.413677
802	H	0.001969	0.105515	0.409818
803	H	0.999189	0.057251	0.447775
804	H	0.998601	0.443369	0.448377
805	H	0.999015	0.395031	0.411317
806	H	0.498851	0.440478	0.620445
807	H	0.501942	0.059264	0.619705
808	H	0.939875	0.50223	0.345004
809	H	0.893945	0.501837	0.554834
810	H	0.941986	0.999584	0.517031
811	H	0.558654	0.499212	0.343885
812	H	0.555191	0.998801	0.516012
813	H	0.603425	0.998632	0.55265
814	C	0.499214	0.999899	0.648978
815	C	0.998416	0.000209	0.415655
816	H	0.518492	0.500123	0.437632
817	H	0.977704	0.000414	0.436347
818	C	0.498739	0.999067	0.549084
819	H	0.498482	0.478349	0.528206
820	H	0.498799	0.019332	0.527287
821	C	0.498858	0.384924	0.655934
822	C	0.614025	0.998399	0.641156
823	C	0.505276	0.114446	0.65588
824	H	0.521805	0.1166	0.633168
825	H	0.500592	0.384508	0.622935
826	H	0.614579	0.498075	0.340901
827	C	0.884633	0.504837	0.642122
828	H	0.882595	0.520485	0.332878
829	C	0.99551	0.32964	0.667784
830	C	0.995701	0.317167	0.62438
831	C	0.994449	0.284833	0.617454
832	C	0.99293	0.264931	0.654918
833	C	0.992861	0.277205	0.365419
834	C	0.994083	0.309537	0.371179
835	H	0.994006	0.318387	0.402836
836	C	0.991998	0.232382	0.649357
837	C	0.519945	0.215468	0.649644
838	C	0.518815	0.182905	0.652491
839	C	0.990496	0.167149	0.655624
840	C	0.962976	0.184231	0.654868
841	C	0.963312	0.216808	0.651412
842	H	0.538957	0.170868	0.655597
843	H	0.942395	0.173047	0.658787
844	H	0.49671	0.33156	0.597439
845	N	0.935663	0.234143	0.651988
846	N	0.548421	0.231412	0.64954
847	N	0.994705	0.271999	0.574064
848	N	0.991741	0.257114	0.402712
849	O	0.918801	0.227353	0.619462
850	O	0.96826	0.261897	0.426114
851	O	0.972008	0.280979	0.551638
852	O	0.563483	0.226309	0.684497
853	O	0.920788	0.229915	0.68734
854	O	0.015194	0.25994	0.426824
855	O	0.01892	0.278904	0.553519
856	O	0.564548	0.223938	0.616545
857	N	0.989097	0.13783	0.667791
858	N	0.496449	0.359398	0.677354
859	C	0.669236	0.497241	0.628366
860	C	0.689072	0.498325	0.591385
861	C	0.72133	0.496994	0.59652
862	C	0.733931	0.494427	0.639977
863	C	0.71429	0.493435	0.344361
864	C	0.682026	0.494843	0.338074
865	H	0.66788	0.493898	0.365226
866	C	0.766441	0.492899	0.644972
867	C	0.783681	0.020629	0.648571
868	C	0.816143	0.019273	0.646171
869	C	0.831577	0.49094	0.639831
870	C	0.814182	0.463606	0.636674
871	C	0.781706	0.464154	0.639488
872	H	0.828407	0.03945	0.646154
873	H	0.825095	0.443087	0.630424
874	H	0.680047	2.3e-05	0.559956
875	N	0.764178	0.436714	0.635122
876	N	0.768119	0.049289	0.652194
877	N	0.741069	0.498184	0.55895
878	N	0.727328	0.490914	0.387429
879	O	0.770432	0.417796	0.665533
880	O	0.718702	0.466643	0.406688
881	O	0.736247	0.476047	0.532784
882	O	0.773677	0.066513	0.619476
883	O	0.768566	0.423904	0.598115
884	O	0.720386	0.513703	0.41133
885	O	0.737975	0.52308	0.537889
886	O	0.775432	0.063231	0.68732
887	N	0.860998	0.489754	0.628443
888	N	0.639447	0.998032	0.619386
889	C	0.528621	0.999344	0.955153
890	C	0.527846	0.999134	0.907913
891	C	0.969871	0.999613	0.908452
892	C	0.969577	0.000279	0.955725
893	C	0.940554	0.501437	0.977599
894	C	0.912544	0.501682	0.953724
895	C	0.913678	0.50095	0.906747
896	C	0.941947	0.999808	0.884461
897	C	0.555536	0.998931	0.883442
898	C	0.584003	0.998847	0.905229
899	C	0.58582	0.998875	0.952289
900	C	0.557856	0.999148	0.976467
901	C	0.99977	0.029533	0.675733
902	C	0.999085	0.029226	0.723016
903	C	0.998651	0.471045	0.723332
904	C	0.998853	0.470418	0.676086
905	C	0.99867	0.443145	0.747613
906	C	0.998897	0.414635	0.725593
907	C	0.998878	0.413041	0.678516
908	C	0.498833	0.441169	0.987871
909	C	0.501132	0.058597	0.987122
910	C	0.001736	0.086641	0.677721
911	C	0.000902	0.085646	0.724684
912	C	0.999433	0.05728	0.747014
913	H	0.001969	0.105515	0.743151
914	H	0.999189	0.057251	0.781107
915	H	0.998601	0.443369	0.781713
916	H	0.999015	0.395031	0.744649
917	H	0.498851	0.440478	0.953777
918	H	0.501942	0.059264	0.953042
919	H	0.939875	0.50223	0.678337
920	H	0.893945	0.501837	0.88817
921	H	0.941986	0.999584	0.850364
922	H	0.558654	0.499212	0.677218
923	H	0.555191	0.998801	0.849345
924	H	0.603425	0.998632	0.885986
925	C	0.499214	0.999899	0.982314
926	C	0.998416	0.000209	0.748992
927	H	0.518492	0.500123	0.770965
928	H	0.977704	0.000414	0.76968
929	C	0.498739	0.999067	0.88242
930	H	0.498482	0.478349	0.861539
931	H	0.498799	0.019332	0.86062
932	C	0.498858	0.384924	0.989266
933	C	0.614025	0.998399	0.974489
934	C	0.505276	0.114446	0.989216
935	H	0.521805	0.1166	0.966504
936	H	0.500592	0.384508	0.956268
937	H	0.614579	0.498075	0.674234
938	C	0.884633	0.504837	0.975458
939	H	0.882595	0.520485	0.666213
940	C	0.99551	0.32964	0.001117
941	C	0.995701	0.317167	0.957713
942	C	0.994449	0.284833	0.950787
943	C	0.99293	0.264931	0.988251
944	C	0.992861	0.277205	0.698755
945	C	0.994083	0.309537	0.704515
946	H	0.994006	0.318387	0.736172
947	C	0.991998	0.232382	0.98269
948	C	0.519945	0.215468	0.982976
949	C	0.518815	0.182905	0.985823
950	C	0.990496	0.167149	0.988957
951	C	0.962976	0.184231	0.988204
952	C	0.963312	0.216808	0.984748
953	H	0.538957	0.170868	0.98893
954	H	0.942395	0.173047	0.99212
955	H	0.49671	0.33156	0.930772
956	N	0.935663	0.234143	0.985321
957	N	0.548421	0.231412	0.982873
958	N	0.994705	0.271999	0.907397
959	N	0.991741	0.257114	0.736049
960	O	0.918801	0.227353	0.952795
961	O	0.96826	0.261897	0.75945
962	O	0.972008	0.280979	0.88497
963	O	0.563483	0.226309	0.017829
964	O	0.920788	0.229915	0.020673
965	O	0.015194	0.25994	0.76016
966	O	0.01892	0.278904	0.886852
967	O	0.564548	0.223938	0.949878
968	N	0.989097	0.13783	0.001123
969	N	0.496449	0.359398	0.010686
970	C	0.669236	0.497241	0.961702
971	C	0.689072	0.498325	0.924718
972	C	0.72133	0.496994	0.929853
973	C	0.733931	0.494427	0.97331
974	C	0.71429	0.493435	0.677694
975	C	0.682026	0.494843	0.671411
976	H	0.66788	0.493898	0.698558
977	C	0.766441	0.492899	0.978305
978	C	0.783681	0.020629	0.981908
979	C	0.816143	0.019273	0.979503
980	C	0.831577	0.49094	0.973167
981	C	0.814182	0.463606	0.970007
982	C	0.781706	0.464154	0.972821
983	H	0.828407	0.03945	0.97949
984	H	0.825095	0.443087	0.963757
985	H	0.680047	2.3e-05	0.893288
986	N	0.764178	0.436714	0.968459
987	N	0.768119	0.049289	0.985527
988	N	0.741069	0.498184	0.892286
989	N	0.727328	0.490914	0.720761
990	O	0.770432	0.417796	0.998866
991	O	0.718702	0.466643	0.740024
992	O	0.736247	0.476047	0.86612
993	O	0.773677	0.066513	0.952808
994	O	0.768566	0.423904	0.931448
995	O	0.720386	0.513703	0.744663
996	O	0.737975	0.52308	0.871222
997	O	0.775432	0.063231	0.020654
998	N	0.860998	0.489754	0.961776
999	N	0.639447	0.998032	0.952719
1000	C	0.52862	0.499344	0.288485
1001	C	0.527845	0.499134	0.241246
1002	C	0.969872	0.499612	0.241784
1003	C	0.969575	0.500277	0.289056
1004	C	0.940553	0.001437	0.310933
1005	C	0.912543	0.001683	0.287055
1006	C	0.913679	0.00095	0.24008
1007	C	0.941945	0.499808	0.217794
1008	C	0.555535	0.49893	0.216776
1009	C	0.584002	0.498847	0.238562
1010	C	0.585822	0.498875	0.28562
1011	C	0.557856	0.499148	0.3098
1012	C	0.99977	0.529533	0.009065
1013	C	0.999085	0.529226	0.056349
1014	C	0.998649	0.971045	0.056666
1015	C	0.998851	0.970419	0.009418
1016	C	0.998671	0.943145	0.080946
1017	C	0.998897	0.914633	0.058925
1018	C	0.998879	0.913039	0.011849
1019	C	0.498831	0.94117	0.321203
1020	C	0.501133	0.558598	0.320454
1021	C	0.001736	0.586641	0.011052
1022	C	0.000902	0.585647	0.058015
1023	C	0.999434	0.557281	0.080345
1024	H	0.001969	0.605515	0.076484
1025	H	0.99919	0.557251	0.114441
1026	H	0.998602	0.943369	0.115045
1027	H	0.999015	0.895031	0.077983
1028	H	0.498852	0.940476	0.287109
1029	H	0.501942	0.559263	0.286373
1030	H	0.939877	0.002231	0.011669
1031	H	0.893944	0.001836	0.221501
1032	H	0.941986	0.499584	0.183698
1033	H	0.558654	0.999212	0.010551
1034	H	0.55519	0.498801	0.182679
1035	H	0.603424	0.498635	0.219317
1036	C	0.499212	0.499899	0.315645
1037	C	0.998415	0.500208	0.082323
1038	H	0.518493	0.000124	0.104297
1039	H	0.977703	0.500414	0.103012
1040	C	0.498739	0.499067	0.215751
1041	H	0.498483	0.978347	0.194871
1042	H	0.4988	0.519332	0.193953
1043	C	0.498859	0.884924	0.322599
1044	C	0.614024	0.498399	0.307821
1045	C	0.505277	0.614445	0.322548
1046	H	0.521806	0.616599	0.299835
1047	H	0.500593	0.884508	0.2896
1048	H	0.614579	0.998076	0.007568
1049	C	0.884632	0.004838	0.308789
1050	H	0.882596	0.020485	0.999544
1051	C	0.995509	0.82964	0.334452
1052	C	0.995702	0.817165	0.291046
1053	C	0.99445	0.784833	0.28412
1054	C	0.992931	0.764931	0.321584
1055	C	0.992861	0.777206	0.032086
1056	C	0.994083	0.809535	0.037847
1057	H	0.994007	0.818387	0.069503
1058	C	0.991998	0.73238	0.316023
1059	C	0.519944	0.715468	0.31631
1060	C	0.518816	0.682905	0.319158
1061	C	0.990497	0.667148	0.32229
1062	C	0.962976	0.684231	0.321535
1063	C	0.963313	0.716808	0.318079
1064	H	0.538956	0.670869	0.322263
1065	H	0.942396	0.673048	0.325452
1066	H	0.496708	0.831561	0.264105
1067	N	0.935664	0.734141	0.318654
1068	N	0.548422	0.731409	0.316206
1069	N	0.994704	0.771999	0.240729
1070	N	0.991742	0.757112	0.06938
1071	O	0.918802	0.727352	0.286128
1072	O	0.968261	0.761897	0.092782
1073	O	0.972006	0.780979	0.218304
1074	O	0.563483	0.72631	0.351164
1075	O	0.920789	0.729914	0.354008
1076	O	0.015194	0.75994	0.093491
1077	O	0.018919	0.778904	0.220184
1078	O	0.564546	0.723937	0.283212
1079	N	0.989097	0.63783	0.334458
1080	N	0.496447	0.859395	0.344018
1081	C	0.669237	0.997239	0.295034
1082	C	0.689071	0.998325	0.25805
1083	C	0.721328	0.996994	0.263185
1084	C	0.733929	0.994427	0.306642
1085	C	0.714291	0.993433	0.011026
1086	C	0.682024	0.994843	0.004742
1087	H	0.66788	0.993898	0.031891
1088	C	0.766439	0.9929	0.311636
1089	C	0.783682	0.520628	0.315239
1090	C	0.816141	0.519274	0.312836
1091	C	0.831577	0.99094	0.306498
1092	C	0.814183	0.963607	0.303339
1093	C	0.781707	0.964154	0.306153
1094	H	0.828408	0.539451	0.312822
1095	H	0.825094	0.943087	0.297089
1096	H	0.680048	0.500023	0.226621
1097	N	0.764176	0.936714	0.30179
1098	N	0.76812	0.54929	0.318861
1099	N	0.74107	0.998184	0.225617
1100	N	0.727326	0.990915	0.054095
1101	O	0.770433	0.917797	0.332199
1102	O	0.718701	0.966643	0.073356
1103	O	0.736246	0.976047	0.199451
1104	O	0.773676	0.566512	0.28614
1105	O	0.768565	0.923904	0.264781
1106	O	0.720385	0.013702	0.077995
1107	O	0.737974	0.023081	0.204554
1108	O	0.77543	0.563231	0.353988
1109	N	0.860999	0.989752	0.295108
1110	N	0.639447	0.498031	0.286052
1111	C	0.52862	0.499344	0.62182
1112	C	0.527845	0.499134	0.57458
1113	C	0.969872	0.499612	0.575119
1114	C	0.969575	0.500277	0.622389
1115	C	0.940553	0.001437	0.644266
1116	C	0.912543	0.001683	0.620388
1117	C	0.913679	0.00095	0.573415
1118	C	0.941945	0.499808	0.551128
1119	C	0.555535	0.49893	0.550109
1120	C	0.584002	0.498847	0.571896
1121	C	0.585822	0.498875	0.618953
1122	C	0.557856	0.499148	0.643134
1123	C	0.99977	0.529533	0.3424
1124	C	0.999085	0.529226	0.389683
1125	C	0.998649	0.971045	0.389999
1126	C	0.998851	0.970419	0.342753
1127	C	0.998671	0.943145	0.41428
1128	C	0.998897	0.914633	0.39226
1129	C	0.998879	0.913039	0.345184
1130	C	0.498831	0.94117	0.654535
1131	C	0.501133	0.558598	0.653789
1132	C	0.001736	0.586641	0.344388
1133	C	0.000902	0.585647	0.391348
1134	C	0.999434	0.557281	0.413677
1135	H	0.001969	0.605515	0.409818
1136	H	0.99919	0.557251	0.447775
1137	H	0.998602	0.943369	0.448377
1138	H	0.999015	0.895031	0.411317
1139	H	0.498852	0.940476	0.620445
1140	H	0.501942	0.559263	0.619705
1141	H	0.939877	0.002231	0.345004
1142	H	0.893944	0.001836	0.554834
1143	H	0.941986	0.499584	0.517031
1144	H	0.558654	0.999212	0.343885
1145	H	0.55519	0.498801	0.516012
1146	H	0.603424	0.498635	0.55265
1147	C	0.499212	0.499899	0.648978
1148	C	0.998415	0.500208	0.415655
1149	H	0.518493	0.000124	0.437632
1150	H	0.977703	0.500414	0.436347
1151	C	0.498739	0.499067	0.549084
1152	H	0.498483	0.978347	0.528206
1153	H	0.4988	0.519332	0.527287
1154	C	0.498859	0.884924	0.655934
1155	C	0.614024	0.498399	0.641156
1156	C	0.505277	0.614445	0.65588
1157	H	0.521806	0.616599	0.633168
1158	H	0.500593	0.884508	0.622935
1159	H	0.614579	0.998076	0.340901
1160	C	0.884632	0.004838	0.642122
1161	H	0.882596	0.020485	0.332878
1162	C	0.995509	0.82964	0.667784
1163	C	0.995702	0.817165	0.62438
1164	C	0.99445	0.784833	0.617454
1165	C	0.992931	0.764931	0.654918
1166	C	0.992861	0.777206	0.365419
1167	C	0.994083	0.809535	0.371179
1168	H	0.994007	0.818387	0.402836
1169	C	0.991998	0.73238	0.649357
1170	C	0.519944	0.715468	0.649644
1171	C	0.518816	0.682905	0.652491
1172	C	0.990497	0.667148	0.655624
1173	C	0.962976	0.684231	0.654868
1174	C	0.963313	0.716808	0.651412
1175	H	0.538956	0.670869	0.655597
1176	H	0.942396	0.673048	0.658787
1177	H	0.496708	0.831561	0.597439
1178	N	0.935664	0.734141	0.651988
1179	N	0.548422	0.731409	0.64954
1180	N	0.994704	0.771999	0.574064
1181	N	0.991742	0.757112	0.402712
1182	O	0.918802	0.727352	0.619462
1183	O	0.968261	0.761897	0.426114
1184	O	0.972006	0.780979	0.551638
1185	O	0.563483	0.72631	0.684497
1186	O	0.920789	0.729914	0.68734
1187	O	0.015194	0.75994	0.426824
1188	O	0.018919	0.778904	0.553519
1189	O	0.564546	0.723937	0.616545
1190	N	0.989097	0.63783	0.667791
1191	N	0.496447	0.859395	0.677354
1192	C	0.669237	0.997239	0.628366
1193	C	0.689071	0.998325	0.591385
1194	C	0.721328	0.996994	0.59652
1195	C	0.733929	0.994427	0.639977
1196	C	0.714291	0.993433	0.344361
1197	C	0.682024	0.994843	0.338074
1198	H	0.66788	0.993898	0.365226
1199	C	0.766439	0.9929	0.644972
1200	C	0.783682	0.520628	0.648571
1201	C	0.816141	0.519274	0.646171
1202	C	0.831577	0.99094	0.639831
1203	C	0.814183	0.963607	0.636674
1204	C	0.781707	0.964154	0.639488
1205	H	0.828408	0.539451	0.646154
1206	H	0.825094	0.943087	0.630424
1207	H	0.680048	0.500023	0.559956
1208	N	0.764176	0.936714	0.635122
1209	N	0.76812	0.54929	0.652194
1210	N	0.74107	0.998184	0.55895
1211	N	0.727326	0.990915	0.387429
1212	O	0.770433	0.917797	0.665533
1213	O	0.718701	0.966643	0.406688
1214	O	0.736246	0.976047	0.532784
1215	O	0.773676	0.566512	0.619476
1216	O	0.768565	0.923904	0.598115
1217	O	0.720385	0.013702	0.41133
1218	O	0.737974	0.023081	0.537889
1219	O	0.77543	0.563231	0.68732
1220	N	0.860999	0.989752	0.628443
1221	N	0.639447	0.498031	0.619386
1222	C	0.52862	0.499344	0.955153
1223	C	0.527845	0.499134	0.907913
1224	C	0.969872	0.499612	0.908452
1225	C	0.969575	0.500277	0.955725
1226	C	0.940553	0.001437	0.977599
1227	C	0.912543	0.001683	0.953724
1228	C	0.913679	0.00095	0.906747
1229	C	0.941945	0.499808	0.884461
1230	C	0.555535	0.49893	0.883442
1231	C	0.584002	0.498847	0.905229
1232	C	0.585822	0.498875	0.952289
1233	C	0.557856	0.499148	0.976467
1234	C	0.99977	0.529533	0.675733
1235	C	0.999085	0.529226	0.723016
1236	C	0.998649	0.971045	0.723332
1237	C	0.998851	0.970419	0.676086
1238	C	0.998671	0.943145	0.747613
1239	C	0.998897	0.914633	0.725593
1240	C	0.998879	0.913039	0.678516
1241	C	0.498831	0.94117	0.987871
1242	C	0.501133	0.558598	0.987122
1243	C	0.001736	0.586641	0.677721
1244	C	0.000902	0.585647	0.724684
1245	C	0.999434	0.557281	0.747014
1246	H	0.001969	0.605515	0.743151
1247	H	0.99919	0.557251	0.781107
1248	H	0.998602	0.943369	0.781713
1249	H	0.999015	0.895031	0.744649
1250	H	0.498852	0.940476	0.953777
1251	H	0.501942	0.559263	0.953042
1252	H	0.939877	0.002231	0.678337
1253	H	0.893944	0.001836	0.88817
1254	H	0.941986	0.499584	0.850364
1255	H	0.558654	0.999212	0.677218
1256	H	0.55519	0.498801	0.849345
1257	H	0.603424	0.498635	0.885986
1258	C	0.499212	0.499899	0.982314
1259	C	0.998415	0.500208	0.748992
1260	H	0.518493	0.000124	0.770965
1261	H	0.977703	0.500414	0.76968
1262	C	0.498739	0.499067	0.88242
1263	H	0.498483	0.978347	0.861539
1264	H	0.4988	0.519332	0.86062
1265	C	0.498859	0.884924	0.989266
1266	C	0.614024	0.498399	0.974489
1267	C	0.505277	0.614445	0.989216
1268	H	0.521806	0.616599	0.966504
1269	H	0.500593	0.884508	0.956268
1270	H	0.614579	0.998076	0.674234
1271	C	0.884632	0.004838	0.975458
1272	H	0.882596	0.020485	0.666213
1273	C	0.995509	0.82964	0.001117
1274	C	0.995702	0.817165	0.957713
1275	C	0.99445	0.784833	0.950787
1276	C	0.992931	0.764931	0.988251
1277	C	0.992861	0.777206	0.698755
1278	C	0.994083	0.809535	0.704515
1279	H	0.994007	0.818387	0.736172
1280	C	0.991998	0.73238	0.98269
1281	C	0.519944	0.715468	0.982976
1282	C	0.518816	0.682905	0.985827
1283	C	0.990497	0.667148	0.988957
1284	C	0.962976	0.684231	0.988204
1285	C	0.963313	0.716808	0.984748
1286	H	0.538956	0.670869	0.98893
1287	H	0.942396	0.673048	0.99212
1288	H	0.496708	0.831561	0.930772
1289	N	0.935664	0.734141	0.985321
1290	N	0.548422	0.731409	0.982873
1291	N	0.994704	0.771999	0.907397
1292	N	0.991742	0.757112	0.736049
1293	O	0.918802	0.727352	0.952795
1294	O	0.968261	0.761897	0.75945
1295	O	0.972006	0.780979	0.88497
1296	O	0.563483	0.72631	0.017829
1297	O	0.920789	0.729914	0.020673
1298	O	0.015194	0.75994	0.76016
1299	O	0.018919	0.778904	0.886852
1300	O	0.564546	0.723937	0.949878
1301	N	0.989097	0.63783	0.001123
1302	N	0.496447	0.859395	0.010686
1303	C	0.669237	0.997239	0.961702
1304	C	0.689071	0.998325	0.924718
1305	C	0.721328	0.996994	0.929853
1306	C	0.733929	0.994427	0.97331
1307	C	0.714291	0.993433	0.677694
1308	C	0.682024	0.994843	0.671411
1309	H	0.66788	0.993898	0.698558
1310	C	0.766439	0.9929	0.978305
1311	C	0.783682	0.520628	0.981908
1312	C	0.816141	0.519274	0.979503
1313	C	0.831577	0.99094	0.973167
1314	C	0.814183	0.963607	0.970007
1315	C	0.781707	0.964154	0.972821
1316	H	0.828408	0.539451	0.97949
1317	H	0.825094	0.943087	0.963757
1318	H	0.680048	0.500023	0.893288
1319	N	0.764176	0.936714	0.968459
1320	N	0.76812	0.54929	0.985527
1321	N	0.74107	0.998184	0.892286
1322	N	0.727326	0.990915	0.720761
1323	O	0.770433	0.917797	0.998866
1324	O	0.718701	0.966643	0.740024
1325	O	0.736246	0.976047	0.86612
1326	O	0.773676	0.566512	0.952808
1327	O	0.768565	0.923904	0.931448
1328	O	0.720385	0.013702	0.744663
1329	O	0.737974	0.023081	0.871222
1330	O	0.77543	0.563231	0.020654
1331	N	0.860999	0.989752	0.961776
1332	N	0.639447	0.498031	0.952719
