data_C540H288N144_2018-02-15_10:37:10
#******************************************
#
# CIF file created by Zeo++
# Zeo++ is an open source package to
# analyze microporous materials
#
#*******************************************

_cell_length_a		43.6127   
_cell_length_b		43.6127   
_cell_length_c		29.7308   
_cell_angle_alpha		90   
_cell_angle_beta		90   
_cell_angle_gamma		120   

_symmetry_space_group_name_H-M		'P1'
_symmetry_Int_Tables_number		1
_symmetry_cell_setting		Monoclinic

loop_
_symmetry_equiv_pos_as_xyz
'+x,+y,+z'

loop_
_atom_site_label
_atom_site_type_symbol
_atom_site_fract_x
_atom_site_fract_y
_atom_site_fract_z
1	C	0.079927	0.291096	0.295809
2	N	0.043961	0.273113	0.298778
3	C	0.02547	0.263867	0.337996
4	C	0.044513	0.273389	0.045842
5	C	0.081887	0.292075	0.044343
6	C	0.025784	0.264024	0.086937
7	H	0.039084	0.270675	0.116936
8	C	0.079927	0.291096	0.629142
9	N	0.043961	0.273113	0.632112
10	C	0.02547	0.263867	0.671331
11	C	0.044513	0.273389	0.379176
12	C	0.081887	0.292075	0.377676
13	C	0.025784	0.264024	0.420271
14	H	0.039084	0.270675	0.450271
15	C	0.079927	0.291096	0.962477
16	N	0.043961	0.273113	0.965444
17	C	0.02547	0.263867	0.004664
18	C	0.044513	0.273389	0.712507
19	C	0.081887	0.292075	0.71101
20	C	0.025784	0.264024	0.753603
21	H	0.039084	0.270675	0.783602
22	C	0.079926	0.791097	0.295809
23	N	0.04396	0.773112	0.298778
24	C	0.02547	0.763866	0.337996
25	C	0.044514	0.77339	0.045842
26	C	0.081886	0.792077	0.044343
27	C	0.025783	0.764025	0.086937
28	H	0.039084	0.770674	0.116936
29	C	0.079926	0.791097	0.629142
30	N	0.04396	0.773112	0.632112
31	C	0.02547	0.763866	0.671331
32	C	0.044514	0.77339	0.379176
33	C	0.081886	0.792077	0.377676
34	C	0.025783	0.764025	0.420271
35	H	0.039084	0.770674	0.450271
36	C	0.079926	0.791097	0.962477
37	N	0.04396	0.773112	0.965444
38	C	0.02547	0.763866	0.004664
39	C	0.044514	0.77339	0.712507
40	C	0.081886	0.792077	0.71101
41	C	0.025783	0.764025	0.753603
42	H	0.039084	0.770674	0.783602
43	C	0.100091	0.301178	0.336151
44	H	0.09596	0.299113	0.073835
45	C	0.094856	0.298562	0.249742
46	H	0.123717	0.312992	0.249316
47	H	0.085733	0.314339	0.231771
48	H	0.085734	0.273659	0.231771
49	C	0.100091	0.301178	0.669484
50	H	0.09596	0.299113	0.407167
51	C	0.094856	0.298562	0.583076
52	H	0.123717	0.312992	0.582649
53	H	0.085733	0.314339	0.565104
54	H	0.085734	0.273659	0.565104
55	C	0.100091	0.301178	0.002819
56	H	0.09596	0.299113	0.740502
57	C	0.094856	0.298562	0.916407
58	H	0.123717	0.312992	0.915983
59	H	0.085733	0.314339	0.898436
60	H	0.085734	0.273659	0.898436
61	C	0.10009	0.801177	0.336151
62	H	0.095961	0.799114	0.073835
63	C	0.094854	0.798561	0.249742
64	H	0.123718	0.812993	0.249316
65	H	0.085733	0.814341	0.231771
66	H	0.085733	0.77366	0.231771
67	C	0.10009	0.801177	0.669484
68	H	0.095961	0.799114	0.407167
69	C	0.094854	0.798561	0.583076
70	H	0.123718	0.812993	0.582649
71	H	0.085733	0.814341	0.565104
72	H	0.085733	0.77366	0.565104
73	C	0.10009	0.801177	0.002819
74	H	0.095961	0.799114	0.740502
75	C	0.094854	0.798561	0.916407
76	H	0.123718	0.812993	0.915983
77	H	0.085733	0.814341	0.898436
78	H	0.085733	0.77366	0.898436
79	C	0.191494	0.373932	0.003189
80	N	0.155519	0.355801	0.003145
81	C	0.137386	0.319825	0.003189
82	N	0.155518	0.301983	0.003145
83	C	0.191494	0.319825	0.003189
84	H	0.198326	0.312989	0.249316
85	H	0.196979	0.273659	0.23177
86	H	0.198328	0.387602	0.249316
87	H	0.196979	0.425585	0.231771
88	C	0.191494	0.373932	0.33652
89	N	0.155519	0.355801	0.336479
90	C	0.137386	0.319825	0.336523
91	N	0.155518	0.301983	0.336479
92	C	0.191494	0.319825	0.33652
93	H	0.198326	0.312989	0.582649
94	H	0.196979	0.273659	0.565104
95	H	0.198328	0.387602	0.582649
96	H	0.196979	0.425585	0.565104
97	C	0.191494	0.373932	0.669854
98	N	0.155519	0.355801	0.669814
99	C	0.137386	0.319825	0.669854
100	N	0.155518	0.301983	0.669814
101	C	0.191494	0.319825	0.669854
102	H	0.198326	0.312989	0.915983
103	H	0.196979	0.273659	0.898436
104	H	0.198328	0.387602	0.915983
105	H	0.196979	0.425585	0.898436
106	C	0.191494	0.873934	0.003189
107	N	0.155517	0.8558	0.003145
108	C	0.137385	0.819824	0.003189
109	N	0.155518	0.801982	0.003145
110	C	0.191493	0.819824	0.003189
111	H	0.198326	0.812988	0.249316
112	H	0.196978	0.773657	0.23177
113	H	0.198327	0.887601	0.249316
114	H	0.196978	0.925583	0.231771
115	C	0.191494	0.873934	0.33652
116	N	0.155517	0.8558	0.336479
117	C	0.137385	0.819824	0.336523
118	N	0.155518	0.801982	0.336479
119	C	0.191493	0.819824	0.33652
120	H	0.198326	0.812988	0.582649
121	H	0.196978	0.773657	0.565104
122	H	0.198327	0.887601	0.582649
123	H	0.196978	0.925583	0.565104
124	C	0.191494	0.873934	0.669854
125	N	0.155517	0.8558	0.669814
126	C	0.137385	0.819824	0.669854
127	N	0.155518	0.801982	0.669814
128	C	0.191493	0.819824	0.669854
129	H	0.198326	0.812988	0.915983
130	H	0.196978	0.773657	0.898436
131	H	0.198327	0.887601	0.915983
132	H	0.196978	0.925583	0.898436
133	N	0.209337	0.355801	0.003145
134	C	0.322077	0.135102	0.003498
135	N	0.358062	0.153257	0.003657
136	C	0.376217	0.18924	0.003498
137	N	0.358063	0.207068	0.003657
138	C	0.322079	0.189241	0.003498
139	N	0.304251	0.153258	0.003657
140	C	0.21014	0.301175	0.336151
141	C	0.220223	0.291096	0.295808
142	N	0.238206	0.273113	0.298777
143	C	0.247452	0.263866	0.337996
144	C	0.237929	0.273389	0.045841
145	C	0.219243	0.292075	0.044342
146	H	0.212205	0.29911	0.073834
147	C	0.266179	0.24514	0.338262
148	C	0.29354	0.217781	0.297609
149	C	0.303462	0.207858	0.004464
150	C	0.294215	0.217105	0.045726
151	N	0.275575	0.235745	0.299204
152	C	0.2755	0.23582	0.046503
153	C	0.265913	0.245406	0.087263
154	C	0.247294	0.264023	0.086936
155	H	0.2724	0.238919	0.11749
156	H	0.240644	0.270672	0.116935
157	H	0.301153	0.210167	0.075348
158	H	0.299663	0.211658	0.266936
159	C	0.212758	0.298559	0.249741
160	H	0.237659	0.314339	0.23177
161	C	0.210142	0.411229	0.336151
162	C	0.220223	0.431391	0.295808
163	N	0.238207	0.467359	0.298777
164	C	0.247452	0.48585	0.337996
165	C	0.23793	0.466806	0.045841
166	C	0.219243	0.429432	0.044343
167	H	0.212207	0.41536	0.073835
168	C	0.266179	0.023304	0.338262
169	C	0.293538	0.078023	0.297609
170	C	0.303461	0.097868	0.004464
171	C	0.294214	0.079375	0.045726
172	N	0.275574	0.042094	0.299204
173	C	0.275499	0.041944	0.046503
174	C	0.265912	0.022771	0.087264
175	C	0.247294	0.485535	0.086937
176	H	0.272399	0.035744	0.11749
177	H	0.240645	0.472236	0.116935
178	H	0.301151	0.09325	0.075348
179	H	0.299663	0.090268	0.266937
180	C	0.212759	0.416464	0.249741
181	H	0.23766	0.425585	0.23177
182	C	0.488016	0.245139	0.338262
183	C	0.433297	0.217779	0.297609
184	C	0.41345	0.207857	0.004464
185	C	0.431944	0.217103	0.045726
186	N	0.469226	0.235744	0.299205
187	C	0.469376	0.235819	0.046504
188	C	0.488548	0.245406	0.087264
189	H	0.475573	0.238919	0.117491
190	H	0.41807	0.210166	0.075349
191	H	0.42105	0.211656	0.266937
192	N	0.209337	0.355801	0.336479
193	C	0.322077	0.135102	0.336833
194	N	0.358062	0.153257	0.336991
195	C	0.376217	0.18924	0.336833
196	N	0.358063	0.207068	0.336991
197	C	0.322079	0.189241	0.336833
198	N	0.304251	0.153258	0.336991
199	C	0.21014	0.301175	0.669484
200	C	0.220223	0.291096	0.629142
201	N	0.238206	0.273113	0.632109
202	C	0.247452	0.263866	0.671328
203	C	0.237929	0.273389	0.379173
204	C	0.219243	0.292075	0.377676
205	H	0.212205	0.29911	0.407167
206	C	0.266179	0.24514	0.671593
207	C	0.29354	0.217781	0.630942
208	C	0.303462	0.207858	0.337795
209	C	0.294215	0.217105	0.379058
210	N	0.275575	0.235745	0.632536
211	C	0.2755	0.23582	0.379835
212	C	0.265913	0.245406	0.420598
213	C	0.247294	0.264023	0.420268
214	H	0.2724	0.238919	0.450822
215	H	0.240644	0.270672	0.450267
216	H	0.301153	0.210167	0.408681
217	H	0.299663	0.211658	0.60027
218	C	0.212758	0.298559	0.583076
219	H	0.237659	0.314339	0.565104
220	C	0.210142	0.411229	0.669484
221	C	0.220223	0.431391	0.629142
222	N	0.238207	0.467359	0.632109
223	C	0.247452	0.48585	0.671331
224	C	0.23793	0.466806	0.379176
225	C	0.219243	0.429432	0.377676
226	H	0.212207	0.41536	0.407167
227	C	0.266179	0.023304	0.671597
228	C	0.293538	0.078023	0.630942
229	C	0.303461	0.097868	0.337798
230	C	0.294214	0.079375	0.379058
231	N	0.275574	0.042094	0.632536
232	C	0.275499	0.041944	0.379835
233	C	0.265912	0.022771	0.420598
234	C	0.247294	0.485535	0.420271
235	H	0.272399	0.035744	0.450822
236	H	0.240645	0.472236	0.450267
237	H	0.301151	0.09325	0.408681
238	H	0.299663	0.090268	0.60027
239	C	0.212759	0.416464	0.583076
240	H	0.23766	0.425585	0.565104
241	C	0.488016	0.245139	0.671597
242	C	0.433297	0.217779	0.630942
243	C	0.41345	0.207857	0.337798
244	C	0.431944	0.217103	0.379058
245	N	0.469226	0.235744	0.63254
246	C	0.469376	0.235819	0.379839
247	C	0.488548	0.245406	0.420598
248	H	0.475573	0.238919	0.450822
249	H	0.41807	0.210166	0.408681
250	H	0.42105	0.211656	0.60027
251	N	0.209337	0.355801	0.669814
252	C	0.322077	0.135102	0.670167
253	N	0.358062	0.153257	0.670325
254	C	0.376217	0.18924	0.670167
255	N	0.358063	0.207068	0.670325
256	C	0.322079	0.189241	0.670167
257	N	0.304251	0.153258	0.670325
258	C	0.21014	0.301175	0.002816
259	C	0.220223	0.291096	0.962474
260	N	0.238206	0.273113	0.965444
261	C	0.247452	0.263866	0.004663
262	C	0.237929	0.273389	0.712507
263	C	0.219243	0.292075	0.711007
264	H	0.212205	0.29911	0.740502
265	C	0.266179	0.24514	0.004928
266	C	0.29354	0.217781	0.964276
267	C	0.303462	0.207858	0.671129
268	C	0.294215	0.217105	0.712393
269	N	0.275575	0.235745	0.965871
270	C	0.2755	0.23582	0.71317
271	C	0.265913	0.245406	0.753929
272	C	0.247294	0.264023	0.753603
273	H	0.2724	0.238919	0.784157
274	H	0.240644	0.270672	0.783602
275	H	0.301153	0.210167	0.742015
276	H	0.299663	0.211658	0.933601
277	C	0.212758	0.298559	0.916407
278	H	0.237659	0.314339	0.898436
279	C	0.210142	0.411229	0.002816
280	C	0.220223	0.431391	0.962474
281	N	0.238207	0.467359	0.965444
282	C	0.247452	0.48585	0.004663
283	C	0.23793	0.466806	0.712507
284	C	0.219243	0.429432	0.71101
285	H	0.212207	0.41536	0.740502
286	C	0.266179	0.023304	0.004929
287	C	0.293538	0.078023	0.964276
288	C	0.303461	0.097868	0.671129
289	C	0.294214	0.079375	0.712393
290	N	0.275574	0.042094	0.965871
291	C	0.275499	0.041944	0.71317
292	C	0.265912	0.022771	0.753929
293	C	0.247294	0.485535	0.753603
294	H	0.272399	0.035744	0.784157
295	H	0.240645	0.472236	0.783602
296	H	0.301151	0.09325	0.742015
297	H	0.299663	0.090268	0.933605
298	C	0.212759	0.416464	0.916407
299	H	0.23766	0.425585	0.898436
300	C	0.488016	0.245139	0.004929
301	C	0.433297	0.217779	0.964276
302	C	0.41345	0.207857	0.671129
303	C	0.431944	0.217103	0.712393
304	N	0.469226	0.235744	0.965871
305	C	0.469376	0.235819	0.71317
306	C	0.488548	0.245406	0.753932
307	H	0.475573	0.238919	0.784157
308	H	0.41807	0.210166	0.742015
309	H	0.42105	0.211656	0.933605
310	N	0.209336	0.8558	0.003145
311	C	0.322078	0.635102	0.003498
312	N	0.358061	0.653257	0.003657
313	C	0.376217	0.68924	0.003498
314	N	0.358061	0.707067	0.003657
315	C	0.322078	0.68924	0.003498
316	N	0.30425	0.653257	0.003657
317	C	0.21014	0.801177	0.336151
318	C	0.220222	0.791095	0.295808
319	N	0.238205	0.773112	0.298777
320	C	0.247451	0.763866	0.337996
321	C	0.237928	0.773387	0.045841
322	C	0.219242	0.792074	0.044342
323	H	0.212206	0.799112	0.073834
324	C	0.266179	0.74514	0.338262
325	C	0.29354	0.717782	0.297609
326	C	0.303462	0.707859	0.004464
327	C	0.294215	0.717104	0.045726
328	N	0.275574	0.735743	0.299204
329	C	0.2755	0.73582	0.046503
330	C	0.265912	0.745405	0.087263
331	C	0.247294	0.764023	0.086936
332	H	0.272399	0.738918	0.11749
333	H	0.240644	0.770674	0.116935
334	H	0.301152	0.710167	0.075348
335	H	0.299662	0.711658	0.266936
336	C	0.212757	0.798558	0.249741
337	H	0.237658	0.814338	0.23177
338	C	0.210141	0.911228	0.336151
339	C	0.220223	0.931392	0.295808
340	N	0.238206	0.967358	0.298777
341	C	0.247451	0.985849	0.337996
342	C	0.237929	0.966804	0.045841
343	C	0.219242	0.92943	0.044343
344	H	0.212206	0.915358	0.073835
345	C	0.266179	0.523303	0.338262
346	C	0.293538	0.578022	0.297609
347	C	0.303461	0.597868	0.004464
348	C	0.294214	0.579375	0.045726
349	N	0.275574	0.542093	0.299204
350	C	0.2755	0.541945	0.046503
351	C	0.265912	0.522771	0.087264
352	C	0.247295	0.985536	0.086937
353	H	0.272399	0.535744	0.11749
354	H	0.240644	0.972235	0.116935
355	H	0.301151	0.593248	0.075348
356	H	0.299661	0.590267	0.266937
357	C	0.212758	0.916462	0.249741
358	H	0.237659	0.925583	0.23177
359	C	0.488015	0.74514	0.338262
360	C	0.433296	0.717779	0.297609
361	C	0.41345	0.707856	0.004464
362	C	0.431944	0.717104	0.045726
363	N	0.469224	0.735743	0.299205
364	C	0.469374	0.735818	0.046504
365	C	0.488547	0.745405	0.087264
366	H	0.475573	0.738918	0.117491
367	H	0.418068	0.710165	0.075349
368	H	0.42105	0.711655	0.266937
369	N	0.209336	0.8558	0.336479
370	C	0.322078	0.635102	0.336833
371	N	0.358061	0.653257	0.336991
372	C	0.376217	0.68924	0.336833
373	N	0.358061	0.707067	0.336991
374	C	0.322078	0.68924	0.336833
375	N	0.30425	0.653257	0.336991
376	C	0.21014	0.801177	0.669484
377	C	0.220222	0.791095	0.629142
378	N	0.238205	0.773112	0.632109
379	C	0.247451	0.763866	0.671328
380	C	0.237928	0.773387	0.379173
381	C	0.219242	0.792074	0.377676
382	H	0.212206	0.799112	0.407167
383	C	0.266179	0.74514	0.671593
384	C	0.29354	0.717782	0.630942
385	C	0.303462	0.707859	0.337795
386	C	0.294215	0.717104	0.379058
387	N	0.275574	0.735743	0.632536
388	C	0.2755	0.73582	0.379835
389	C	0.265912	0.745405	0.420598
390	C	0.247294	0.764023	0.420268
391	H	0.272399	0.738918	0.450822
392	H	0.240644	0.770674	0.450267
393	H	0.301152	0.710167	0.408681
394	H	0.299662	0.711658	0.60027
395	C	0.212757	0.798558	0.583076
396	H	0.237658	0.814338	0.565104
397	C	0.210141	0.911228	0.669484
398	C	0.220223	0.931392	0.629142
399	N	0.238206	0.967358	0.632109
400	C	0.247451	0.985849	0.671331
401	C	0.237929	0.966804	0.379176
402	C	0.219242	0.92943	0.377676
403	H	0.212206	0.915358	0.407167
404	C	0.266179	0.523303	0.671597
405	C	0.293538	0.578022	0.630942
406	C	0.303461	0.597868	0.337798
407	C	0.294214	0.579375	0.379058
408	N	0.275574	0.542093	0.632536
409	C	0.2755	0.541945	0.379835
410	C	0.265912	0.522771	0.420598
411	C	0.247295	0.985536	0.420271
412	H	0.272399	0.535744	0.450822
413	H	0.240644	0.972235	0.450267
414	H	0.301151	0.593248	0.408681
415	H	0.299661	0.590267	0.60027
416	C	0.212758	0.916462	0.583076
417	H	0.237659	0.925583	0.565104
418	C	0.488015	0.74514	0.671597
419	C	0.433296	0.717779	0.630942
420	C	0.41345	0.707856	0.337798
421	C	0.431944	0.717104	0.379058
422	N	0.469224	0.735743	0.63254
423	C	0.469374	0.735818	0.379839
424	C	0.488547	0.745405	0.420598
425	H	0.475573	0.738918	0.450822
426	H	0.418068	0.710165	0.408681
427	H	0.42105	0.711655	0.60027
428	N	0.209336	0.8558	0.669814
429	C	0.322078	0.635102	0.670167
430	N	0.358061	0.653257	0.670325
431	C	0.376217	0.68924	0.670167
432	N	0.358061	0.707067	0.670325
433	C	0.322078	0.68924	0.670167
434	N	0.30425	0.653257	0.670325
435	C	0.21014	0.801177	0.002816
436	C	0.220222	0.791095	0.962474
437	N	0.238205	0.773112	0.965444
438	C	0.247451	0.763866	0.004663
439	C	0.237928	0.773387	0.712507
440	C	0.219242	0.792074	0.711007
441	H	0.212206	0.799112	0.740502
442	C	0.266179	0.74514	0.004928
443	C	0.29354	0.717782	0.964276
444	C	0.303462	0.707859	0.671129
445	C	0.294215	0.717104	0.712393
446	N	0.275574	0.735743	0.965871
447	C	0.2755	0.73582	0.71317
448	C	0.265912	0.745405	0.753929
449	C	0.247294	0.764023	0.753603
450	H	0.272399	0.738918	0.784157
451	H	0.240644	0.770674	0.783602
452	H	0.301152	0.710167	0.742015
453	H	0.299662	0.711658	0.933601
454	C	0.212757	0.798558	0.916407
455	H	0.237658	0.814338	0.898436
456	C	0.210141	0.911228	0.002816
457	C	0.220223	0.931392	0.962474
458	N	0.238206	0.967358	0.965444
459	C	0.247451	0.985849	0.004663
460	C	0.237929	0.966804	0.712507
461	C	0.219242	0.92943	0.71101
462	H	0.212206	0.915358	0.740502
463	C	0.266179	0.523303	0.004929
464	C	0.293538	0.578022	0.964276
465	C	0.303461	0.597868	0.671129
466	C	0.294214	0.579375	0.712393
467	N	0.275574	0.542093	0.965871
468	C	0.2755	0.541945	0.71317
469	C	0.265912	0.522771	0.753929
470	C	0.247295	0.985536	0.753603
471	H	0.272399	0.535744	0.784157
472	H	0.240644	0.972235	0.783602
473	H	0.301151	0.593248	0.742015
474	H	0.299661	0.590267	0.933605
475	C	0.212758	0.916462	0.916407
476	H	0.237659	0.925583	0.898436
477	C	0.488015	0.74514	0.004929
478	C	0.433296	0.717779	0.964276
479	C	0.41345	0.707856	0.671129
480	C	0.431944	0.717104	0.712393
481	N	0.469224	0.735743	0.965871
482	C	0.469374	0.735818	0.71317
483	C	0.488547	0.745405	0.753932
484	H	0.475573	0.738918	0.784157
485	H	0.418068	0.710165	0.742015
486	H	0.42105	0.711655	0.933605
487	C	0.691493	0.373932	0.003189
488	N	0.655518	0.355801	0.003145
489	C	0.637386	0.319825	0.003189
490	N	0.655518	0.301983	0.003145
491	C	0.691494	0.319825	0.003189
492	N	0.709337	0.355801	0.003145
493	C	0.822079	0.135102	0.003498
494	N	0.858061	0.153257	0.003657
495	C	0.876218	0.18924	0.003498
496	N	0.858062	0.207068	0.003657
497	C	0.822078	0.189241	0.003498
498	N	0.804252	0.153258	0.003657
499	C	0.71014	0.301175	0.336151
500	C	0.720222	0.291096	0.295808
501	N	0.738207	0.273113	0.298777
502	C	0.747451	0.263866	0.337996
503	C	0.737929	0.273389	0.045841
504	C	0.719242	0.292075	0.044342
505	H	0.712205	0.29911	0.073834
506	C	0.766178	0.24514	0.338262
507	C	0.793539	0.217781	0.297609
508	C	0.803461	0.207858	0.004464
509	C	0.794215	0.217105	0.045726
510	N	0.775575	0.235745	0.299204
511	C	0.7755	0.23582	0.046503
512	C	0.765912	0.245406	0.087263
513	C	0.747295	0.264023	0.086936
514	H	0.7724	0.238919	0.11749
515	H	0.740643	0.270672	0.116935
516	H	0.801154	0.210167	0.075348
517	H	0.799661	0.211658	0.266936
518	C	0.712757	0.298559	0.249741
519	H	0.698327	0.312989	0.249316
520	H	0.696978	0.273659	0.23177
521	H	0.737658	0.314339	0.23177
522	C	0.710141	0.411229	0.336151
523	C	0.720222	0.431391	0.295808
524	N	0.738206	0.467359	0.298777
525	C	0.747452	0.48585	0.337996
526	C	0.73793	0.466806	0.045841
527	C	0.719243	0.429432	0.044343
528	H	0.712207	0.41536	0.073835
529	C	0.76618	0.023304	0.338262
530	C	0.793539	0.078023	0.297609
531	C	0.803462	0.097868	0.004464
532	C	0.794215	0.079375	0.045726
533	N	0.775575	0.042094	0.299204
534	C	0.7755	0.041944	0.046503
535	C	0.765913	0.022771	0.087264
536	C	0.747294	0.485535	0.086937
537	H	0.7724	0.035744	0.11749
538	H	0.740645	0.472236	0.116935
539	H	0.801153	0.09325	0.075348
540	H	0.799662	0.090268	0.266937
541	C	0.712759	0.416464	0.249741
542	H	0.698328	0.387602	0.249316
543	H	0.73766	0.425585	0.23177
544	H	0.696979	0.425585	0.231771
545	C	0.600091	0.301178	0.336151
546	C	0.579926	0.291096	0.295809
547	N	0.543961	0.273113	0.298778
548	C	0.52547	0.263867	0.337996
549	C	0.544513	0.273389	0.045842
550	C	0.581885	0.292075	0.044343
551	H	0.59596	0.299113	0.073835
552	C	0.988015	0.245139	0.338262
553	C	0.933296	0.217779	0.297609
554	C	0.913451	0.207857	0.004464
555	C	0.931945	0.217103	0.045726
556	N	0.969225	0.235744	0.299205
557	C	0.969375	0.235819	0.046504
558	C	0.988547	0.245406	0.087264
559	C	0.525783	0.264024	0.086937
560	H	0.975575	0.238919	0.117491
561	H	0.539084	0.270675	0.116936
562	H	0.918068	0.210166	0.075349
563	H	0.921052	0.211656	0.266937
564	C	0.594855	0.298562	0.249742
565	H	0.623717	0.312992	0.249316
566	H	0.585733	0.314339	0.231771
567	H	0.585733	0.273659	0.231771
568	C	0.691493	0.373932	0.33652
569	N	0.655518	0.355801	0.336479
570	C	0.637386	0.319825	0.336523
571	N	0.655518	0.301983	0.336479
572	C	0.691494	0.319825	0.33652
573	N	0.709337	0.355801	0.336479
574	C	0.822079	0.135102	0.336833
575	N	0.858061	0.153257	0.336991
576	C	0.876218	0.18924	0.336833
577	N	0.858062	0.207068	0.336991
578	C	0.822078	0.189241	0.336833
579	N	0.804252	0.153258	0.336991
580	C	0.71014	0.301175	0.669484
581	C	0.720222	0.291096	0.629142
582	N	0.738207	0.273113	0.632109
583	C	0.747451	0.263866	0.671328
584	C	0.737929	0.273389	0.379173
585	C	0.719242	0.292075	0.377676
586	H	0.712205	0.29911	0.407167
587	C	0.766178	0.24514	0.671593
588	C	0.793539	0.217781	0.630942
589	C	0.803461	0.207858	0.337795
590	C	0.794215	0.217105	0.379058
591	N	0.775575	0.235745	0.632536
592	C	0.7755	0.23582	0.379835
593	C	0.765912	0.245406	0.420598
594	C	0.747295	0.264023	0.420268
595	H	0.7724	0.238919	0.450822
596	H	0.740643	0.270672	0.450267
597	H	0.801154	0.210167	0.408681
598	H	0.799661	0.211658	0.60027
599	C	0.712757	0.298559	0.583076
600	H	0.698327	0.312989	0.582649
601	H	0.696978	0.273659	0.565104
602	H	0.737658	0.314339	0.565104
603	C	0.710141	0.411229	0.669484
604	C	0.720222	0.431391	0.629142
605	N	0.738206	0.467359	0.632109
606	C	0.747452	0.48585	0.671331
607	C	0.73793	0.466806	0.379176
608	C	0.719243	0.429432	0.377676
609	H	0.712207	0.41536	0.407167
610	C	0.76618	0.023304	0.671597
611	C	0.793539	0.078023	0.630942
612	C	0.803462	0.097868	0.337798
613	C	0.794215	0.079375	0.379058
614	N	0.775575	0.042094	0.632536
615	C	0.7755	0.041944	0.379835
616	C	0.765913	0.022771	0.420598
617	C	0.747294	0.485535	0.420271
618	H	0.7724	0.035744	0.450822
619	H	0.740645	0.472236	0.450267
620	H	0.801153	0.09325	0.408681
621	H	0.799662	0.090268	0.60027
622	C	0.712759	0.416464	0.583076
623	H	0.698328	0.387602	0.582649
624	H	0.73766	0.425585	0.565104
625	H	0.696979	0.425585	0.565104
626	C	0.600091	0.301178	0.669484
627	C	0.579926	0.291096	0.629142
628	N	0.543961	0.273113	0.632112
629	C	0.52547	0.263867	0.671331
630	C	0.544513	0.273389	0.379176
631	C	0.581885	0.292075	0.377676
632	H	0.59596	0.299113	0.407167
633	C	0.988015	0.245139	0.671597
634	C	0.933296	0.217779	0.630942
635	C	0.913451	0.207857	0.337798
636	C	0.931945	0.217103	0.379058
637	N	0.969225	0.235744	0.63254
638	C	0.969375	0.235819	0.379839
639	C	0.988547	0.245406	0.420598
640	C	0.525783	0.264024	0.420271
641	H	0.975575	0.238919	0.450822
642	H	0.539084	0.270675	0.450271
643	H	0.918068	0.210166	0.408681
644	H	0.921052	0.211656	0.60027
645	C	0.594855	0.298562	0.583076
646	H	0.623717	0.312992	0.582649
647	H	0.585733	0.314339	0.565104
648	H	0.585733	0.273659	0.565104
649	C	0.691493	0.373932	0.669854
650	N	0.655518	0.355801	0.669814
651	C	0.637386	0.319825	0.669854
652	N	0.655518	0.301983	0.669814
653	C	0.691494	0.319825	0.669854
654	N	0.709337	0.355801	0.669814
655	C	0.822079	0.135102	0.670167
656	N	0.858061	0.153257	0.670325
657	C	0.876218	0.18924	0.670167
658	N	0.858062	0.207068	0.670325
659	C	0.822078	0.189241	0.670167
660	N	0.804252	0.153258	0.670325
661	C	0.71014	0.301175	0.002816
662	C	0.720222	0.291096	0.962474
663	N	0.738207	0.273113	0.965444
664	C	0.747451	0.263866	0.004663
665	C	0.737929	0.273389	0.712507
666	C	0.719242	0.292075	0.711007
667	H	0.712205	0.29911	0.740502
668	C	0.766178	0.24514	0.004928
669	C	0.793539	0.217781	0.964276
670	C	0.803461	0.207858	0.671129
671	C	0.794215	0.217105	0.712393
672	N	0.775575	0.235745	0.965871
673	C	0.7755	0.23582	0.71317
674	C	0.765912	0.245406	0.753929
675	C	0.747295	0.264023	0.753603
676	H	0.7724	0.238919	0.784157
677	H	0.740643	0.270672	0.783602
678	H	0.801154	0.210167	0.742015
679	H	0.799661	0.211658	0.933601
680	C	0.712757	0.298559	0.916407
681	H	0.698327	0.312989	0.915983
682	H	0.696978	0.273659	0.898436
683	H	0.737658	0.314339	0.898436
684	C	0.710141	0.411229	0.002816
685	C	0.720222	0.431391	0.962474
686	N	0.738206	0.467359	0.965444
687	C	0.747452	0.48585	0.004663
688	C	0.73793	0.466806	0.712507
689	C	0.719243	0.429432	0.71101
690	H	0.712207	0.41536	0.740502
691	C	0.76618	0.023304	0.004929
692	C	0.793539	0.078023	0.964276
693	C	0.803462	0.097868	0.671129
694	C	0.794215	0.079375	0.712393
695	N	0.775575	0.042094	0.965871
696	C	0.7755	0.041944	0.71317
697	C	0.765913	0.022771	0.753929
698	C	0.747294	0.485535	0.753603
699	H	0.7724	0.035744	0.784157
700	H	0.740645	0.472236	0.783602
701	H	0.801153	0.09325	0.742015
702	H	0.799662	0.090268	0.933605
703	C	0.712759	0.416464	0.916407
704	H	0.698328	0.387602	0.915983
705	H	0.73766	0.425585	0.898436
706	H	0.696979	0.425585	0.898436
707	C	0.600091	0.301178	0.002819
708	C	0.579926	0.291096	0.962477
709	N	0.543961	0.273113	0.965444
710	C	0.52547	0.263867	0.004664
711	C	0.544513	0.273389	0.712507
712	C	0.581885	0.292075	0.71101
713	H	0.59596	0.299113	0.740502
714	C	0.988015	0.245139	0.004929
715	C	0.933296	0.217779	0.964276
716	C	0.913451	0.207857	0.671129
717	C	0.931945	0.217103	0.712393
718	N	0.969225	0.235744	0.965871
719	C	0.969375	0.235819	0.71317
720	C	0.988547	0.245406	0.753932
721	C	0.525783	0.264024	0.753603
722	H	0.975575	0.238919	0.784157
723	H	0.539084	0.270675	0.783602
724	H	0.918068	0.210166	0.742015
725	H	0.921052	0.211656	0.933605
726	C	0.594855	0.298562	0.916407
727	H	0.623717	0.312992	0.915983
728	H	0.585733	0.314339	0.898436
729	H	0.585733	0.273659	0.898436
730	C	0.691493	0.873934	0.003189
731	N	0.655517	0.8558	0.003145
732	C	0.637384	0.819824	0.003189
733	N	0.655517	0.801982	0.003145
734	C	0.691492	0.819824	0.003189
735	N	0.709335	0.8558	0.003145
736	C	0.822078	0.635102	0.003498
737	N	0.85806	0.653257	0.003657
738	C	0.876217	0.68924	0.003498
739	N	0.85806	0.707067	0.003657
740	C	0.822079	0.68924	0.003498
741	N	0.80425	0.653257	0.003657
742	C	0.71014	0.801177	0.336151
743	C	0.720222	0.791095	0.295808
744	N	0.738205	0.773112	0.298777
745	C	0.747452	0.763866	0.337996
746	C	0.737928	0.773387	0.045841
747	C	0.71924	0.792074	0.044342
748	H	0.712205	0.799112	0.073834
749	C	0.766179	0.74514	0.338262
750	C	0.793539	0.717782	0.297609
751	C	0.803463	0.707859	0.004464
752	C	0.794216	0.717104	0.045726
753	N	0.775573	0.735743	0.299204
754	C	0.775499	0.73582	0.046503
755	C	0.765913	0.745405	0.087263
756	C	0.747294	0.764023	0.086936
757	H	0.772398	0.738918	0.11749
758	H	0.740643	0.770674	0.116935
759	H	0.801152	0.710167	0.075348
760	H	0.799662	0.711658	0.266936
761	C	0.712756	0.798558	0.249741
762	H	0.698325	0.812988	0.249316
763	H	0.696978	0.773657	0.23177
764	H	0.737657	0.814338	0.23177
765	C	0.710142	0.911228	0.336151
766	C	0.720222	0.931392	0.295808
767	N	0.738204	0.967358	0.298777
768	C	0.74745	0.985849	0.337996
769	C	0.737928	0.966804	0.045841
770	C	0.719241	0.92943	0.044343
771	H	0.712205	0.915358	0.073835
772	C	0.766178	0.523303	0.338262
773	C	0.793538	0.578022	0.297609
774	C	0.803461	0.597868	0.004464
775	C	0.794214	0.579375	0.045726
776	N	0.775573	0.542093	0.299204
777	C	0.775499	0.541945	0.046503
778	C	0.765912	0.522771	0.087264
779	C	0.747294	0.985536	0.086937
780	H	0.772399	0.535744	0.11749
781	H	0.740643	0.972235	0.116935
782	H	0.801151	0.593248	0.075348
783	H	0.79966	0.590267	0.266937
784	C	0.712757	0.916462	0.249741
785	H	0.698326	0.887601	0.249316
786	H	0.737658	0.925583	0.23177
787	H	0.696977	0.925583	0.231771
788	C	0.600089	0.801177	0.336151
789	C	0.579927	0.791097	0.295809
790	N	0.54396	0.773112	0.298778
791	C	0.525469	0.763866	0.337996
792	C	0.544513	0.77339	0.045842
793	C	0.581887	0.792077	0.044343
794	H	0.59596	0.799114	0.073835
795	C	0.988014	0.74514	0.338262
796	C	0.933295	0.717779	0.297609
797	C	0.91345	0.707856	0.004464
798	C	0.931944	0.717104	0.045726
799	N	0.969223	0.735743	0.299205
800	C	0.969373	0.735818	0.046504
801	C	0.988547	0.745405	0.087264
802	C	0.525783	0.764025	0.086937
803	H	0.975573	0.738918	0.117491
804	H	0.539082	0.770674	0.116936
805	H	0.918069	0.710165	0.075349
806	H	0.92105	0.711655	0.266937
807	C	0.594855	0.798561	0.249742
808	H	0.623717	0.812993	0.249316
809	H	0.585733	0.814341	0.231771
810	H	0.585734	0.77366	0.231771
811	C	0.691493	0.873934	0.33652
812	N	0.655517	0.8558	0.336479
813	C	0.637384	0.819824	0.336523
814	N	0.655517	0.801982	0.336479
815	C	0.691492	0.819824	0.33652
816	N	0.709335	0.8558	0.336479
817	C	0.822078	0.635102	0.336833
818	N	0.85806	0.653257	0.336991
819	C	0.876217	0.68924	0.336833
820	N	0.85806	0.707067	0.336991
821	C	0.822079	0.68924	0.336833
822	N	0.80425	0.653257	0.336991
823	C	0.71014	0.801177	0.669484
824	C	0.720222	0.791095	0.629142
825	N	0.738205	0.773112	0.632109
826	C	0.747452	0.763866	0.671328
827	C	0.737928	0.773387	0.379173
828	C	0.71924	0.792074	0.377676
829	H	0.712205	0.799112	0.407167
830	C	0.766179	0.74514	0.671593
831	C	0.793539	0.717782	0.630942
832	C	0.803463	0.707859	0.337795
833	C	0.794216	0.717104	0.379058
834	N	0.775573	0.735743	0.632536
835	C	0.775499	0.73582	0.379835
836	C	0.765913	0.745405	0.420598
837	C	0.747294	0.764023	0.420268
838	H	0.772398	0.738918	0.450822
839	H	0.740643	0.770674	0.450267
840	H	0.801152	0.710167	0.408681
841	H	0.799662	0.711658	0.60027
842	C	0.712756	0.798558	0.583076
843	H	0.698325	0.812988	0.582649
844	H	0.696978	0.773657	0.565104
845	H	0.737657	0.814338	0.565104
846	C	0.710142	0.911228	0.669484
847	C	0.720222	0.931392	0.629142
848	N	0.738204	0.967358	0.632109
849	C	0.74745	0.985849	0.671331
850	C	0.737928	0.966804	0.379176
851	C	0.719241	0.92943	0.377676
852	H	0.712205	0.915358	0.407167
853	C	0.766178	0.523303	0.671597
854	C	0.793538	0.578022	0.630942
855	C	0.803461	0.597868	0.337798
856	C	0.794214	0.579375	0.379058
857	N	0.775573	0.542093	0.632536
858	C	0.775499	0.541945	0.379835
859	C	0.765912	0.522771	0.420598
860	C	0.747294	0.985536	0.420271
861	H	0.772399	0.535744	0.450822
862	H	0.740643	0.972235	0.450267
863	H	0.801151	0.593248	0.408681
864	H	0.79966	0.590267	0.60027
865	C	0.712757	0.916462	0.583076
866	H	0.698326	0.887601	0.582649
867	H	0.737658	0.925583	0.565104
868	H	0.696977	0.925583	0.565104
869	C	0.600089	0.801177	0.669484
870	C	0.579927	0.791097	0.629142
871	N	0.54396	0.773112	0.632112
872	C	0.525469	0.763866	0.671331
873	C	0.544513	0.77339	0.379176
874	C	0.581887	0.792077	0.377676
875	H	0.59596	0.799114	0.407167
876	C	0.988014	0.74514	0.671597
877	C	0.933295	0.717779	0.630942
878	C	0.91345	0.707856	0.337798
879	C	0.931944	0.717104	0.379058
880	N	0.969223	0.735743	0.63254
881	C	0.969373	0.735818	0.379839
882	C	0.988547	0.745405	0.420598
883	C	0.525783	0.764025	0.420271
884	H	0.975573	0.738918	0.450822
885	H	0.539082	0.770674	0.450271
886	H	0.918069	0.710165	0.408681
887	H	0.92105	0.711655	0.60027
888	C	0.594855	0.798561	0.583076
889	H	0.623717	0.812993	0.582649
890	H	0.585733	0.814341	0.565104
891	H	0.585734	0.77366	0.565104
892	C	0.691493	0.873934	0.669854
893	N	0.655517	0.8558	0.669814
894	C	0.637384	0.819824	0.669854
895	N	0.655517	0.801982	0.669814
896	C	0.691492	0.819824	0.669854
897	N	0.709335	0.8558	0.669814
898	C	0.822078	0.635102	0.670167
899	N	0.85806	0.653257	0.670325
900	C	0.876217	0.68924	0.670167
901	N	0.85806	0.707067	0.670325
902	C	0.822079	0.68924	0.670167
903	N	0.80425	0.653257	0.670325
904	C	0.71014	0.801177	0.002816
905	C	0.720222	0.791095	0.962474
906	N	0.738205	0.773112	0.965444
907	C	0.747452	0.763866	0.004663
908	C	0.737928	0.773387	0.712507
909	C	0.71924	0.792074	0.711007
910	H	0.712205	0.799112	0.740502
911	C	0.766179	0.74514	0.004928
912	C	0.793539	0.717782	0.964276
913	C	0.803463	0.707859	0.671129
914	C	0.794216	0.717104	0.712393
915	N	0.775573	0.735743	0.965871
916	C	0.775499	0.73582	0.71317
917	C	0.765913	0.745405	0.753929
918	C	0.747294	0.764023	0.753603
919	H	0.772398	0.738918	0.784157
920	H	0.740643	0.770674	0.783602
921	H	0.801152	0.710167	0.742015
922	H	0.799662	0.711658	0.933601
923	C	0.712756	0.798558	0.916407
924	H	0.698325	0.812988	0.915983
925	H	0.696978	0.773657	0.898436
926	H	0.737657	0.814338	0.898436
927	C	0.710142	0.911228	0.002816
928	C	0.720222	0.931392	0.962474
929	N	0.738204	0.967358	0.965444
930	C	0.74745	0.985849	0.004663
931	C	0.737928	0.966804	0.712507
932	C	0.719241	0.92943	0.71101
933	H	0.712205	0.915358	0.740502
934	C	0.766178	0.523303	0.004929
935	C	0.793538	0.578022	0.964276
936	C	0.803461	0.597868	0.671129
937	C	0.794214	0.579375	0.712393
938	N	0.775573	0.542093	0.965871
939	C	0.775499	0.541945	0.71317
940	C	0.765912	0.522771	0.753929
941	C	0.747294	0.985536	0.753603
942	H	0.772399	0.535744	0.784157
943	H	0.740643	0.972235	0.783602
944	H	0.801151	0.593248	0.742015
945	H	0.79966	0.590267	0.933605
946	C	0.712757	0.916462	0.916407
947	H	0.698326	0.887601	0.915983
948	H	0.737658	0.925583	0.898436
949	H	0.696977	0.925583	0.898436
950	C	0.600089	0.801177	0.002819
951	C	0.579927	0.791097	0.962477
952	N	0.54396	0.773112	0.965444
953	C	0.525469	0.763866	0.004664
954	C	0.544513	0.77339	0.712507
955	C	0.581887	0.792077	0.71101
956	H	0.59596	0.799114	0.740502
957	C	0.988014	0.74514	0.004929
958	C	0.933295	0.717779	0.964276
959	C	0.91345	0.707856	0.671129
960	C	0.931944	0.717104	0.712393
961	N	0.969223	0.735743	0.965871
962	C	0.969373	0.735818	0.71317
963	C	0.988547	0.745405	0.753932
964	C	0.525783	0.764025	0.753603
965	H	0.975573	0.738918	0.784157
966	H	0.539082	0.770674	0.783602
967	H	0.918069	0.710165	0.742015
968	H	0.92105	0.711655	0.933605
969	C	0.594855	0.798561	0.916407
970	H	0.623717	0.812993	0.915983
971	H	0.585733	0.814341	0.898436
972	H	0.585734	0.77366	0.898436
