data_C504H288N144_2018-02-15_10:45:43
#******************************************
#
# CIF file created by Zeo++
# Zeo++ is an open source package to
# analyze microporous materials
#
#*******************************************

_cell_length_a		45.9558   
_cell_length_b		45.9558   
_cell_length_c		29.31   
_cell_angle_alpha		90   
_cell_angle_beta		90   
_cell_angle_gamma		120   

_symmetry_space_group_name_H-M		'P1'
_symmetry_Int_Tables_number		1
_symmetry_cell_setting		Monoclinic

loop_
_symmetry_equiv_pos_as_xyz
'+x,+y,+z'

loop_
_atom_site_label
_atom_site_type_symbol
_atom_site_fract_x
_atom_site_fract_y
_atom_site_fract_z
1	C	0.208924	0.334464	0.028332
2	C	0.218644	0.369091	0.028332
3	C	0.194962	0.380345	0.028334
4	C	0.160335	0.355437	0.02833
5	C	0.149081	0.320502	0.028333
6	C	0.173988	0.310783	0.028331
7	H	0.142791	0.362973	0.028185
8	H	0.166452	0.285702	0.028181
9	H	0.243723	0.386634	0.028188
10	C	0.204696	0.414994	0.028035
11	C	0.114431	0.295586	0.028027
12	C	0.23384	0.32473	0.028028
13	H	0.258524	0.343203	0.02655
14	H	0.10822	0.270902	0.02655
15	H	0.186223	0.421206	0.026549
16	C	0.246312	0.277219	0.030622
17	C	0.230085	0.241988	0.036924
18	C	0.248446	0.224412	0.036727
19	N	0.230745	0.190712	0.044291
20	C	0.197139	0.173074	0.051618
21	C	0.17923	0.190402	0.051521
22	N	0.196308	0.224028	0.044289
23	H	0.185283	0.147753	0.057132
24	H	0.153888	0.178108	0.056995
25	N	0.227212	0.292431	0.030869
26	C	0.252207	0.474979	0.030624
27	C	0.252405	0.028623	0.357738
28	C	0.235056	0.493105	0.358018
29	H	0.209602	0.480554	0.35334
30	H	0.238812	0.040503	0.352866
31	N	0.236997	0.440669	0.030874
32	C	0.054449	0.283114	0.03062
33	C	0.035443	0.29934	0.036922
34	C	0.036322	0.247837	0.358014
35	C	0.034713	0.350196	0.051517
36	N	0.051261	0.333118	0.044286
37	H	0.047761	0.375538	0.056991
38	H	0.048873	0.234933	0.353337
39	N	0.088759	0.302215	0.030868
40	C	0.208924	0.334464	0.361665
41	C	0.218644	0.369091	0.361665
42	C	0.194962	0.380345	0.361668
43	C	0.160335	0.355437	0.361665
44	C	0.149081	0.320502	0.361665
45	C	0.173988	0.310783	0.361665
46	H	0.142791	0.362973	0.361518
47	H	0.166452	0.285702	0.361515
48	H	0.243723	0.386634	0.361522
49	C	0.204696	0.414994	0.361368
50	C	0.114431	0.295586	0.361361
51	C	0.23384	0.32473	0.361361
52	H	0.258524	0.343203	0.359884
53	H	0.10822	0.270902	0.359884
54	H	0.186223	0.421206	0.359884
55	C	0.246312	0.277219	0.363954
56	C	0.230085	0.241988	0.370259
57	C	0.248446	0.224412	0.370061
58	N	0.230745	0.190712	0.377625
59	C	0.197139	0.173074	0.38495
60	C	0.17923	0.190402	0.384855
61	N	0.196308	0.224028	0.377622
62	H	0.185283	0.147753	0.390464
63	H	0.153888	0.178108	0.390327
64	N	0.227212	0.292431	0.364203
65	C	0.252207	0.474979	0.363958
66	C	0.252405	0.028623	0.691071
67	C	0.235056	0.493105	0.691351
68	H	0.209602	0.480554	0.686673
69	H	0.238812	0.040503	0.686199
70	N	0.236997	0.440669	0.364207
71	C	0.054449	0.283114	0.363954
72	C	0.035443	0.29934	0.370256
73	C	0.036322	0.247837	0.691347
74	C	0.034713	0.350196	0.384851
75	N	0.051261	0.333118	0.377618
76	H	0.047761	0.375538	0.390324
77	H	0.048873	0.234933	0.68667
78	N	0.088759	0.302215	0.364203
79	C	0.208924	0.334464	0.694998
80	C	0.218644	0.369091	0.694998
81	C	0.194962	0.380345	0.695001
82	C	0.160335	0.355437	0.694998
83	C	0.149081	0.320502	0.695001
84	C	0.173988	0.310783	0.694998
85	H	0.142791	0.362973	0.694851
86	H	0.166452	0.285702	0.694848
87	H	0.243723	0.386634	0.694855
88	C	0.204696	0.414994	0.694701
89	C	0.114431	0.295586	0.694694
90	C	0.23384	0.32473	0.694694
91	H	0.258524	0.343203	0.693217
92	H	0.10822	0.270902	0.693217
93	H	0.186223	0.421206	0.693217
94	C	0.246312	0.277219	0.697287
95	C	0.230085	0.241988	0.703592
96	C	0.248446	0.224412	0.703395
97	N	0.230745	0.190712	0.710958
98	C	0.197139	0.173074	0.718284
99	C	0.17923	0.190402	0.718188
100	N	0.196308	0.224028	0.710955
101	H	0.185283	0.147753	0.723801
102	H	0.153888	0.178108	0.723661
103	N	0.227212	0.292431	0.697536
104	C	0.252207	0.474979	0.697291
105	C	0.252405	0.028623	0.024404
106	C	0.235056	0.493105	0.024684
107	H	0.209602	0.480554	0.020005
108	H	0.238812	0.040503	0.019533
109	N	0.236997	0.440669	0.69754
110	C	0.054449	0.283114	0.697287
111	C	0.035443	0.29934	0.703589
112	C	0.036322	0.247837	0.024681
113	C	0.034713	0.350196	0.718185
114	N	0.051261	0.333118	0.710952
115	H	0.047761	0.375538	0.723657
116	H	0.048873	0.234933	0.020003
117	N	0.088759	0.302215	0.697536
118	C	0.208924	0.834464	0.028332
119	C	0.218644	0.86909	0.028332
120	C	0.194961	0.880345	0.028334
121	C	0.160337	0.855439	0.02833
122	C	0.149082	0.820501	0.028333
123	C	0.173988	0.810782	0.028331
124	H	0.142793	0.862975	0.028185
125	H	0.166453	0.785701	0.028181
126	H	0.243725	0.886636	0.028188
127	C	0.204697	0.914996	0.028035
128	C	0.114431	0.795586	0.028027
129	C	0.23384	0.82473	0.028028
130	H	0.258524	0.843203	0.02655
131	H	0.108221	0.770902	0.02655
132	H	0.186224	0.921205	0.026549
133	C	0.246313	0.777221	0.030622
134	C	0.230086	0.741989	0.036924
135	C	0.248447	0.724413	0.036727
136	N	0.230745	0.690711	0.044291
137	C	0.19714	0.673075	0.051618
138	C	0.17923	0.690402	0.051521
139	N	0.196308	0.724028	0.044289
140	H	0.185283	0.647752	0.057132
141	H	0.153888	0.678108	0.056995
142	N	0.227212	0.79243	0.030869
143	C	0.252206	0.974978	0.030624
144	C	0.252407	0.528623	0.357738
145	C	0.235055	0.993104	0.358018
146	H	0.209603	0.980553	0.35334
147	H	0.238812	0.540503	0.352866
148	N	0.236997	0.940668	0.030874
149	C	0.054448	0.783113	0.03062
150	C	0.035445	0.799342	0.036922
151	C	0.036322	0.747836	0.358014
152	C	0.034714	0.850195	0.051517
153	N	0.051263	0.83312	0.044286
154	H	0.047762	0.875538	0.056991
155	H	0.048874	0.734933	0.353337
156	N	0.088759	0.802214	0.030868
157	C	0.208924	0.834464	0.361665
158	C	0.218644	0.86909	0.361665
159	C	0.194961	0.880345	0.361668
160	C	0.160337	0.855439	0.361665
161	C	0.149082	0.820501	0.361665
162	C	0.173988	0.810782	0.361665
163	H	0.142793	0.862975	0.361518
164	H	0.166453	0.785701	0.361515
165	H	0.243725	0.886636	0.361522
166	C	0.204697	0.914996	0.361368
167	C	0.114431	0.795586	0.361361
168	C	0.23384	0.82473	0.361361
169	H	0.258524	0.843203	0.359884
170	H	0.108221	0.770902	0.359884
171	H	0.186224	0.921205	0.359884
172	C	0.246313	0.777221	0.363954
173	C	0.230086	0.741989	0.370259
174	C	0.248447	0.724413	0.370061
175	N	0.230745	0.690711	0.377625
176	C	0.19714	0.673075	0.38495
177	C	0.17923	0.690402	0.384855
178	N	0.196308	0.724028	0.377622
179	H	0.185283	0.647752	0.390464
180	H	0.153888	0.678108	0.390327
181	N	0.227212	0.79243	0.364203
182	C	0.252206	0.974978	0.363958
183	C	0.252407	0.528623	0.691071
184	C	0.235055	0.993104	0.691351
185	H	0.209603	0.980553	0.686673
186	H	0.238812	0.540503	0.686199
187	N	0.236997	0.940668	0.364207
188	C	0.054448	0.783113	0.363954
189	C	0.035445	0.799342	0.370256
190	C	0.036322	0.747836	0.691347
191	C	0.034714	0.850195	0.384851
192	N	0.051263	0.83312	0.377618
193	H	0.047762	0.875538	0.390324
194	H	0.048874	0.734933	0.68667
195	N	0.088759	0.802214	0.364203
196	C	0.208924	0.834464	0.694998
197	C	0.218644	0.86909	0.694998
198	C	0.194961	0.880345	0.695001
199	C	0.160337	0.855439	0.694998
200	C	0.149082	0.820501	0.695001
201	C	0.173988	0.810782	0.694998
202	H	0.142793	0.862975	0.694851
203	H	0.166453	0.785701	0.694848
204	H	0.243725	0.886636	0.694855
205	C	0.204697	0.914996	0.694701
206	C	0.114431	0.795586	0.694694
207	C	0.23384	0.82473	0.694694
208	H	0.258524	0.843203	0.693217
209	H	0.108221	0.770902	0.693217
210	H	0.186224	0.921205	0.693217
211	C	0.246313	0.777221	0.697287
212	C	0.230086	0.741989	0.703592
213	C	0.248447	0.724413	0.703395
214	N	0.230745	0.690711	0.710958
215	C	0.19714	0.673075	0.718284
216	C	0.17923	0.690402	0.718188
217	N	0.196308	0.724028	0.710955
218	H	0.185283	0.647752	0.723801
219	H	0.153888	0.678108	0.723661
220	N	0.227212	0.79243	0.697536
221	C	0.252206	0.974978	0.697291
222	C	0.252407	0.528623	0.024404
223	C	0.235055	0.993104	0.024684
224	H	0.209603	0.980553	0.020005
225	H	0.238812	0.540503	0.019533
226	N	0.236997	0.940668	0.69754
227	C	0.054448	0.783113	0.697287
228	C	0.035445	0.799342	0.703589
229	C	0.036322	0.747836	0.024681
230	C	0.034714	0.850195	0.718185
231	N	0.051263	0.83312	0.710952
232	H	0.047762	0.875538	0.723657
233	H	0.048874	0.734933	0.020003
234	N	0.088759	0.802214	0.697536
235	C	0.325444	0.187803	0.028895
236	C	0.316985	0.1535	0.028833
237	C	0.341623	0.143527	0.028895
238	C	0.375927	0.169372	0.028836
239	C	0.385898	0.203982	0.02889
240	C	0.360055	0.21244	0.028835
241	H	0.394208	0.162824	0.029126
242	H	0.366602	0.23727	0.029124
243	H	0.292155	0.135217	0.029127
244	C	0.333269	0.109272	0.029693
245	C	0.420154	0.229883	0.029691
246	C	0.299543	0.196156	0.029692
247	H	0.275418	0.176647	0.030526
248	H	0.424768	0.254007	0.030525
249	H	0.352778	0.104657	0.030531
250	C	0.283817	0.24175	0.363258
251	C	0.299758	0.277021	0.357738
252	C	0.281589	0.29437	0.358014
253	H	0.294492	0.319823	0.353337
254	H	0.325232	0.290614	0.352866
255	N	0.304155	0.227847	0.361743
256	C	0.287438	0.493982	0.036927
257	C	0.305015	0.029919	0.036729
258	C	0.287677	0.047952	0.363258
259	N	0.338715	0.045919	0.044294
260	C	0.356351	0.029951	0.051622
261	C	0.339023	0.494713	0.051525
262	N	0.305398	0.478165	0.044293
263	H	0.381673	0.043416	0.057137
264	H	0.351317	0.481665	0.057001
265	N	0.301579	0.082193	0.361743
266	C	0.325444	0.187803	0.362228
267	C	0.316985	0.1535	0.362166
268	C	0.341623	0.143527	0.362228
269	C	0.375927	0.169372	0.36217
270	C	0.385898	0.203982	0.362224
271	C	0.360055	0.21244	0.36217
272	H	0.394208	0.162824	0.36246
273	H	0.366602	0.23727	0.362456
274	H	0.292155	0.135217	0.36246
275	C	0.333269	0.109272	0.363026
276	C	0.420154	0.229883	0.363023
277	C	0.299543	0.196156	0.363026
278	H	0.275418	0.176647	0.363859
279	H	0.424768	0.254007	0.363859
280	H	0.352778	0.104657	0.363865
281	C	0.283817	0.24175	0.696591
282	C	0.299758	0.277021	0.691071
283	C	0.281589	0.29437	0.691351
284	H	0.294492	0.319823	0.68667
285	H	0.325232	0.290614	0.686199
286	N	0.304155	0.227847	0.695077
287	C	0.287438	0.493982	0.370259
288	C	0.305015	0.029919	0.370061
289	C	0.287677	0.047952	0.696591
290	N	0.338715	0.045919	0.377629
291	C	0.356351	0.029951	0.384957
292	C	0.339023	0.494713	0.384858
293	N	0.305398	0.478165	0.377625
294	H	0.381673	0.043416	0.390471
295	H	0.351317	0.481665	0.390334
296	N	0.301579	0.082193	0.695077
297	C	0.325444	0.187803	0.695561
298	C	0.316985	0.1535	0.6955
299	C	0.341623	0.143527	0.695561
300	C	0.375927	0.169372	0.695503
301	C	0.385898	0.203982	0.695558
302	C	0.360055	0.21244	0.695503
303	H	0.394208	0.162824	0.695793
304	H	0.366602	0.23727	0.69579
305	H	0.292155	0.135217	0.695793
306	C	0.333269	0.109272	0.696359
307	C	0.420154	0.229883	0.696356
308	C	0.299543	0.196156	0.696359
309	H	0.275418	0.176647	0.697192
310	H	0.424768	0.254007	0.697192
311	H	0.352778	0.104657	0.697199
312	C	0.283817	0.24175	0.029925
313	C	0.299758	0.277021	0.024404
314	C	0.281589	0.29437	0.024682
315	H	0.294492	0.319823	0.020004
316	H	0.325232	0.290614	0.019533
317	N	0.304155	0.227847	0.028409
318	C	0.287438	0.493982	0.703592
319	C	0.305015	0.029919	0.703395
320	C	0.287677	0.047952	0.029926
321	N	0.338715	0.045919	0.710962
322	C	0.356351	0.029951	0.71829
323	C	0.339023	0.494713	0.718192
324	N	0.305398	0.478165	0.710958
325	H	0.381673	0.043416	0.723804
326	H	0.351317	0.481665	0.723667
327	N	0.301579	0.082193	0.028409
328	C	0.325445	0.687804	0.028895
329	C	0.316987	0.653501	0.028833
330	C	0.341623	0.643526	0.028895
331	C	0.375926	0.669371	0.028836
332	C	0.3859	0.703983	0.02889
333	C	0.360055	0.71244	0.028835
334	H	0.394208	0.662823	0.029126
335	H	0.366603	0.73727	0.029124
336	H	0.292155	0.635217	0.029127
337	C	0.333269	0.609271	0.029693
338	C	0.420154	0.729883	0.029691
339	C	0.299543	0.696156	0.029692
340	H	0.275419	0.676648	0.030526
341	H	0.424769	0.754007	0.030525
342	H	0.35278	0.604658	0.030531
343	C	0.283817	0.74175	0.363258
344	C	0.299758	0.77702	0.357738
345	C	0.281589	0.79437	0.358014
346	H	0.294493	0.819825	0.353337
347	H	0.325232	0.790613	0.352866
348	N	0.304155	0.727848	0.361743
349	C	0.287439	0.993983	0.036927
350	C	0.305015	0.52992	0.036729
351	C	0.287677	0.547953	0.363258
352	N	0.338715	0.54592	0.044294
353	C	0.356352	0.52995	0.051622
354	C	0.339023	0.994712	0.051525
355	N	0.305398	0.978164	0.044293
356	H	0.381673	0.543415	0.057137
357	H	0.351318	0.981667	0.057001
358	N	0.301579	0.582193	0.361743
359	C	0.325445	0.687804	0.362228
360	C	0.316987	0.653501	0.362166
361	C	0.341623	0.643526	0.362228
362	C	0.375926	0.669371	0.36217
363	C	0.3859	0.703983	0.362224
364	C	0.360055	0.71244	0.36217
365	H	0.394208	0.662823	0.36246
366	H	0.366603	0.73727	0.362456
367	H	0.292155	0.635217	0.36246
368	C	0.333269	0.609271	0.363026
369	C	0.420154	0.729883	0.363023
370	C	0.299543	0.696156	0.363026
371	H	0.275419	0.676648	0.363859
372	H	0.424769	0.754007	0.363859
373	H	0.35278	0.604658	0.363865
374	C	0.283817	0.74175	0.696591
375	C	0.299758	0.77702	0.691071
376	C	0.281589	0.79437	0.691351
377	H	0.294493	0.819825	0.68667
378	H	0.325232	0.790613	0.686199
379	N	0.304155	0.727848	0.695077
380	C	0.287439	0.993983	0.370259
381	C	0.305015	0.52992	0.370061
382	C	0.287677	0.547953	0.696591
383	N	0.338715	0.54592	0.377629
384	C	0.356352	0.52995	0.384957
385	C	0.339023	0.994712	0.384858
386	N	0.305398	0.978164	0.377625
387	H	0.381673	0.543415	0.390471
388	H	0.351318	0.981667	0.390334
389	N	0.301579	0.582193	0.695077
390	C	0.325445	0.687804	0.695561
391	C	0.316987	0.653501	0.6955
392	C	0.341623	0.643526	0.695561
393	C	0.375926	0.669371	0.695503
394	C	0.3859	0.703983	0.695558
395	C	0.360055	0.71244	0.695503
396	H	0.394208	0.662823	0.695793
397	H	0.366603	0.73727	0.69579
398	H	0.292155	0.635217	0.695793
399	C	0.333269	0.609271	0.696359
400	C	0.420154	0.729883	0.696356
401	C	0.299543	0.696156	0.696359
402	H	0.275419	0.676648	0.697192
403	H	0.424769	0.754007	0.697192
404	H	0.35278	0.604658	0.697199
405	C	0.283817	0.74175	0.029925
406	C	0.299758	0.77702	0.024404
407	C	0.281589	0.79437	0.024682
408	H	0.294493	0.819825	0.020004
409	H	0.325232	0.790613	0.019533
410	N	0.304155	0.727848	0.028409
411	C	0.287439	0.993983	0.703592
412	C	0.305015	0.52992	0.703395
413	C	0.287677	0.547953	0.029926
414	N	0.338715	0.54592	0.710962
415	C	0.356352	0.52995	0.71829
416	C	0.339023	0.994712	0.718192
417	N	0.305398	0.978164	0.710958
418	H	0.381673	0.543415	0.723804
419	H	0.351318	0.981667	0.723667
420	N	0.301579	0.582193	0.028409
421	C	0.499507	0.28098	0.036725
422	C	0.481473	0.24561	0.363258
423	C	0.500803	0.229669	0.357734
424	N	0.483508	0.298682	0.044288
425	C	0.499475	0.332288	0.051614
426	H	0.48601	0.344143	0.057128
427	H	0.488923	0.204194	0.352866
428	N	0.447233	0.225272	0.36174
429	C	0.499507	0.28098	0.370058
430	C	0.481473	0.24561	0.696591
431	C	0.500803	0.229669	0.691068
432	N	0.483508	0.298682	0.377622
433	C	0.499475	0.332288	0.384947
434	H	0.48601	0.344143	0.39046
435	H	0.488923	0.204194	0.686199
436	N	0.447233	0.225272	0.695073
437	C	0.499507	0.28098	0.703391
438	C	0.481473	0.24561	0.029923
439	C	0.500803	0.229669	0.024402
440	N	0.483508	0.298682	0.710955
441	C	0.499475	0.332288	0.71828
442	H	0.48601	0.344143	0.723794
443	H	0.488923	0.204194	0.019532
444	N	0.447233	0.225272	0.028407
445	C	0.499506	0.78098	0.036725
446	C	0.481474	0.745609	0.363258
447	C	0.500803	0.729669	0.357734
448	N	0.483507	0.798681	0.044288
449	C	0.499476	0.832288	0.051614
450	H	0.48601	0.844142	0.057128
451	H	0.488923	0.704194	0.352866
452	N	0.447233	0.725272	0.36174
453	C	0.499506	0.78098	0.370058
454	C	0.481474	0.745609	0.696591
455	C	0.500803	0.729669	0.691068
456	N	0.483507	0.798681	0.377622
457	C	0.499476	0.832288	0.384947
458	H	0.48601	0.844142	0.39046
459	H	0.488923	0.704194	0.686199
460	N	0.447233	0.725272	0.695073
461	C	0.499506	0.78098	0.703391
462	C	0.481474	0.745609	0.029923
463	C	0.500803	0.729669	0.024402
464	N	0.483507	0.798681	0.710955
465	C	0.499476	0.832288	0.71828
466	H	0.48601	0.844142	0.723794
467	H	0.488923	0.704194	0.019532
468	N	0.447233	0.725272	0.028407
469	C	0.554449	0.283114	0.03062
470	C	0.535443	0.29934	0.036922
471	C	0.536321	0.247837	0.358014
472	C	0.534713	0.350196	0.051517
473	N	0.551261	0.333118	0.044286
474	H	0.547761	0.375538	0.056991
475	H	0.548873	0.234933	0.353337
476	C	0.554449	0.283114	0.363954
477	C	0.535443	0.29934	0.370256
478	C	0.536321	0.247837	0.691347
479	C	0.534713	0.350196	0.384851
480	N	0.551261	0.333118	0.377618
481	H	0.547761	0.375538	0.390324
482	H	0.548873	0.234933	0.68667
483	C	0.554449	0.283114	0.697287
484	C	0.535443	0.29934	0.703589
485	C	0.536321	0.247837	0.024681
486	C	0.534713	0.350196	0.718185
487	N	0.551261	0.333118	0.710952
488	H	0.547761	0.375538	0.723657
489	H	0.548873	0.234933	0.020003
490	C	0.554448	0.783113	0.03062
491	C	0.535444	0.799342	0.036922
492	C	0.536321	0.747836	0.358014
493	C	0.534713	0.850195	0.051517
494	N	0.551262	0.83312	0.044286
495	H	0.547761	0.875538	0.056991
496	H	0.548872	0.734933	0.353337
497	C	0.554448	0.783113	0.363954
498	C	0.535444	0.799342	0.370256
499	C	0.536321	0.747836	0.691347
500	C	0.534713	0.850195	0.384851
501	N	0.551262	0.83312	0.377618
502	H	0.547761	0.875538	0.390324
503	H	0.548872	0.734933	0.68667
504	C	0.554448	0.783113	0.697287
505	C	0.535444	0.799342	0.703589
506	C	0.536321	0.747836	0.024681
507	C	0.534713	0.850195	0.718185
508	N	0.551262	0.83312	0.710952
509	H	0.547761	0.875538	0.723657
510	H	0.548872	0.734933	0.020003
511	C	0.708924	0.334464	0.028332
512	C	0.718644	0.369091	0.028332
513	C	0.694962	0.380345	0.028334
514	C	0.660335	0.355437	0.02833
515	C	0.649081	0.320502	0.028333
516	C	0.673988	0.310783	0.028331
517	H	0.642791	0.362973	0.028185
518	H	0.666452	0.285702	0.028181
519	H	0.743722	0.386634	0.028188
520	C	0.704697	0.414994	0.028035
521	C	0.614431	0.295586	0.028027
522	C	0.73384	0.32473	0.028028
523	H	0.758524	0.343203	0.02655
524	H	0.608221	0.270902	0.02655
525	H	0.686223	0.421206	0.026549
526	C	0.825444	0.187803	0.028895
527	C	0.816985	0.1535	0.028833
528	C	0.841623	0.143527	0.028895
529	C	0.875924	0.169372	0.028836
530	C	0.885898	0.203982	0.02889
531	C	0.860053	0.21244	0.028835
532	H	0.894208	0.162824	0.029126
533	H	0.866602	0.23727	0.029124
534	H	0.792155	0.135217	0.029127
535	C	0.833269	0.109272	0.029693
536	C	0.920152	0.229883	0.029691
537	C	0.799544	0.196156	0.029692
538	H	0.775418	0.176647	0.030526
539	H	0.924768	0.254007	0.030525
540	H	0.852778	0.104657	0.030531
541	C	0.746311	0.277219	0.030622
542	C	0.730084	0.241988	0.036924
543	C	0.748445	0.224412	0.036727
544	C	0.783816	0.24175	0.363258
545	C	0.799757	0.277021	0.357738
546	C	0.781588	0.29437	0.358014
547	N	0.730745	0.190712	0.044291
548	C	0.697139	0.173074	0.051618
549	C	0.67923	0.190402	0.051521
550	N	0.696308	0.224028	0.044289
551	H	0.685283	0.147753	0.057132
552	H	0.653888	0.178108	0.056995
553	H	0.794491	0.319823	0.353337
554	H	0.825232	0.290614	0.352866
555	N	0.727213	0.292431	0.030869
556	N	0.804154	0.227847	0.361743
557	C	0.752206	0.474979	0.030624
558	C	0.787438	0.493982	0.036927
559	C	0.805015	0.029919	0.036729
560	C	0.787675	0.047952	0.363258
561	C	0.752405	0.028623	0.357738
562	C	0.735057	0.493105	0.358018
563	N	0.838713	0.045919	0.044294
564	C	0.856351	0.029951	0.051622
565	C	0.839023	0.494713	0.051525
566	N	0.805398	0.478165	0.044293
567	H	0.881671	0.043416	0.057137
568	H	0.851317	0.481665	0.057001
569	H	0.709602	0.480554	0.35334
570	H	0.738812	0.040503	0.352866
571	N	0.736996	0.440669	0.030874
572	N	0.801579	0.082193	0.361743
573	C	0.999507	0.28098	0.036725
574	C	0.981473	0.24561	0.363258
575	C	0.000803	0.229669	0.357734
576	N	0.983508	0.298682	0.044288
577	C	0.999475	0.332288	0.051614
578	H	0.98601	0.344143	0.057128
579	H	0.988923	0.204194	0.352866
580	N	0.588758	0.302215	0.030868
581	N	0.947231	0.225272	0.36174
582	C	0.708924	0.334464	0.361665
583	C	0.718644	0.369091	0.361665
584	C	0.694962	0.380345	0.361668
585	C	0.660335	0.355437	0.361665
586	C	0.649081	0.320502	0.361665
587	C	0.673988	0.310783	0.361665
588	H	0.642791	0.362973	0.361518
589	H	0.666452	0.285702	0.361515
590	H	0.743722	0.386634	0.361522
591	C	0.704697	0.414994	0.361368
592	C	0.614431	0.295586	0.361361
593	C	0.73384	0.32473	0.361361
594	H	0.758524	0.343203	0.359884
595	H	0.608221	0.270902	0.359884
596	H	0.686223	0.421206	0.359884
597	C	0.825444	0.187803	0.362228
598	C	0.816985	0.1535	0.362166
599	C	0.841623	0.143527	0.362228
600	C	0.875924	0.169372	0.36217
601	C	0.885898	0.203982	0.362224
602	C	0.860053	0.21244	0.36217
603	H	0.894208	0.162824	0.36246
604	H	0.866602	0.23727	0.362456
605	H	0.792155	0.135217	0.36246
606	C	0.833269	0.109272	0.363026
607	C	0.920152	0.229883	0.363023
608	C	0.799544	0.196156	0.363026
609	H	0.775418	0.176647	0.363859
610	H	0.924768	0.254007	0.363859
611	H	0.852778	0.104657	0.363865
612	C	0.746311	0.277219	0.363954
613	C	0.730084	0.241988	0.370259
614	C	0.748445	0.224412	0.370061
615	C	0.783816	0.24175	0.696591
616	C	0.799757	0.277021	0.691071
617	C	0.781588	0.29437	0.691351
618	N	0.730745	0.190712	0.377625
619	C	0.697139	0.173074	0.38495
620	C	0.67923	0.190402	0.384855
621	N	0.696308	0.224028	0.377622
622	H	0.685283	0.147753	0.390464
623	H	0.653888	0.178108	0.390327
624	H	0.794491	0.319823	0.68667
625	H	0.825232	0.290614	0.686199
626	N	0.727213	0.292431	0.364203
627	N	0.804154	0.227847	0.695077
628	C	0.752206	0.474979	0.363958
629	C	0.787438	0.493982	0.370259
630	C	0.805015	0.029919	0.370061
631	C	0.787675	0.047952	0.696591
632	C	0.752405	0.028623	0.691071
633	C	0.735057	0.493105	0.691351
634	N	0.838713	0.045919	0.377629
635	C	0.856351	0.029951	0.384957
636	C	0.839023	0.494713	0.384858
637	N	0.805398	0.478165	0.377625
638	H	0.881671	0.043416	0.390471
639	H	0.851317	0.481665	0.390334
640	H	0.709602	0.480554	0.686673
641	H	0.738812	0.040503	0.686199
642	N	0.736996	0.440669	0.364207
643	N	0.801579	0.082193	0.695077
644	C	0.999507	0.28098	0.370058
645	C	0.981473	0.24561	0.696591
646	C	0.000803	0.229669	0.691068
647	N	0.983508	0.298682	0.377622
648	C	0.999475	0.332288	0.384947
649	H	0.98601	0.344143	0.39046
650	H	0.988923	0.204194	0.686199
651	N	0.588758	0.302215	0.364203
652	N	0.947231	0.225272	0.695073
653	C	0.708924	0.334464	0.694998
654	C	0.718644	0.369091	0.694998
655	C	0.694962	0.380345	0.695001
656	C	0.660335	0.355437	0.694998
657	C	0.649081	0.320502	0.695001
658	C	0.673988	0.310783	0.694998
659	H	0.642791	0.362973	0.694851
660	H	0.666452	0.285702	0.694848
661	H	0.743722	0.386634	0.694855
662	C	0.704697	0.414994	0.694701
663	C	0.614431	0.295586	0.694694
664	C	0.73384	0.32473	0.694694
665	H	0.758524	0.343203	0.693217
666	H	0.608221	0.270902	0.693217
667	H	0.686223	0.421206	0.693217
668	C	0.825444	0.187803	0.695561
669	C	0.816985	0.1535	0.6955
670	C	0.841623	0.143527	0.695561
671	C	0.875924	0.169372	0.695503
672	C	0.885898	0.203982	0.695558
673	C	0.860053	0.21244	0.695503
674	H	0.894208	0.162824	0.695793
675	H	0.866602	0.23727	0.69579
676	H	0.792155	0.135217	0.695793
677	C	0.833269	0.109272	0.696359
678	C	0.920152	0.229883	0.696356
679	C	0.799544	0.196156	0.696359
680	H	0.775418	0.176647	0.697192
681	H	0.924768	0.254007	0.697192
682	H	0.852778	0.104657	0.697199
683	C	0.746311	0.277219	0.697287
684	C	0.730084	0.241988	0.703592
685	C	0.748445	0.224412	0.703395
686	C	0.783816	0.24175	0.029925
687	C	0.799757	0.277021	0.024404
688	C	0.781588	0.29437	0.024682
689	N	0.730745	0.190712	0.710958
690	C	0.697139	0.173074	0.718284
691	C	0.67923	0.190402	0.718188
692	N	0.696308	0.224028	0.710955
693	H	0.685283	0.147753	0.723801
694	H	0.653888	0.178108	0.723661
695	H	0.794491	0.319823	0.020004
696	H	0.825232	0.290614	0.019533
697	N	0.727213	0.292431	0.697536
698	N	0.804154	0.227847	0.028409
699	C	0.752206	0.474979	0.697291
700	C	0.787438	0.493982	0.703592
701	C	0.805015	0.029919	0.703395
702	C	0.787675	0.047952	0.029926
703	C	0.752405	0.028623	0.024404
704	C	0.735057	0.493105	0.024684
705	N	0.838713	0.045919	0.710962
706	C	0.856351	0.029951	0.71829
707	C	0.839023	0.494713	0.718192
708	N	0.805398	0.478165	0.710958
709	H	0.881671	0.043416	0.723804
710	H	0.851317	0.481665	0.723667
711	H	0.709602	0.480554	0.020005
712	H	0.738812	0.040503	0.019533
713	N	0.736996	0.440669	0.69754
714	N	0.801579	0.082193	0.028409
715	C	0.999507	0.28098	0.703391
716	C	0.981473	0.24561	0.029923
717	C	0.000803	0.229669	0.024402
718	N	0.983508	0.298682	0.710955
719	C	0.999475	0.332288	0.71828
720	H	0.98601	0.344143	0.723794
721	H	0.988923	0.204194	0.019532
722	N	0.588758	0.302215	0.697536
723	N	0.947231	0.225272	0.028407
724	C	0.708923	0.834464	0.028332
725	C	0.718644	0.86909	0.028332
726	C	0.694961	0.880345	0.028334
727	C	0.660337	0.855439	0.02833
728	C	0.64908	0.820501	0.028333
729	C	0.673988	0.810782	0.028331
730	H	0.642791	0.862975	0.028185
731	H	0.66645	0.785701	0.028181
732	H	0.743724	0.886636	0.028188
733	C	0.704697	0.914996	0.028035
734	C	0.61443	0.795586	0.028027
735	C	0.733839	0.82473	0.028028
736	H	0.758523	0.843203	0.02655
737	H	0.608219	0.770902	0.02655
738	H	0.686221	0.921205	0.026549
739	C	0.825445	0.687804	0.028895
740	C	0.816987	0.653501	0.028833
741	C	0.841621	0.643526	0.028895
742	C	0.875925	0.669371	0.028836
743	C	0.8859	0.703983	0.02889
744	C	0.860054	0.71244	0.028835
745	H	0.894209	0.662823	0.029126
746	H	0.866603	0.73727	0.029124
747	H	0.792156	0.635217	0.029127
748	C	0.83327	0.609271	0.029693
749	C	0.920153	0.729883	0.029691
750	C	0.799542	0.696156	0.029692
751	H	0.775418	0.676648	0.030526
752	H	0.924769	0.754007	0.030525
753	H	0.85278	0.604658	0.030531
754	C	0.746313	0.777221	0.030622
755	C	0.730085	0.741989	0.036924
756	C	0.748447	0.724413	0.036727
757	C	0.783817	0.74175	0.363258
758	C	0.799757	0.77702	0.357738
759	C	0.781589	0.79437	0.358014
760	N	0.730745	0.690711	0.044291
761	C	0.69714	0.673075	0.051618
762	C	0.679231	0.690402	0.051521
763	N	0.696307	0.724028	0.044289
764	H	0.685282	0.647752	0.057132
765	H	0.653887	0.678108	0.056995
766	H	0.794493	0.819825	0.353337
767	H	0.825231	0.790613	0.352866
768	N	0.727211	0.79243	0.030869
769	N	0.804156	0.727848	0.361743
770	C	0.752206	0.974978	0.030624
771	C	0.787438	0.993983	0.036927
772	C	0.805014	0.52992	0.036729
773	C	0.787677	0.547953	0.363258
774	C	0.752407	0.528623	0.357738
775	C	0.735055	0.993104	0.358018
776	N	0.838715	0.54592	0.044294
777	C	0.856352	0.52995	0.051622
778	C	0.839023	0.994712	0.051525
779	N	0.805397	0.978164	0.044293
780	H	0.881672	0.543415	0.057137
781	H	0.851319	0.981667	0.057001
782	H	0.709603	0.980553	0.35334
783	H	0.738813	0.540503	0.352866
784	N	0.736997	0.940668	0.030874
785	N	0.801578	0.582193	0.361743
786	C	0.999506	0.78098	0.036725
787	C	0.981474	0.745609	0.363258
788	C	0.000802	0.729669	0.357734
789	N	0.983506	0.798681	0.044288
790	C	0.999476	0.832288	0.051614
791	H	0.986009	0.844142	0.057128
792	H	0.988922	0.704194	0.352866
793	N	0.588758	0.802214	0.030868
794	N	0.947233	0.725272	0.36174
795	C	0.708923	0.834464	0.361665
796	C	0.718644	0.86909	0.361665
797	C	0.694961	0.880345	0.361668
798	C	0.660337	0.855439	0.361665
799	C	0.64908	0.820501	0.361665
800	C	0.673988	0.810782	0.361665
801	H	0.642791	0.862975	0.361518
802	H	0.66645	0.785701	0.361515
803	H	0.743724	0.886636	0.361522
804	C	0.704697	0.914996	0.361368
805	C	0.61443	0.795586	0.361361
806	C	0.733839	0.82473	0.361361
807	H	0.758523	0.843203	0.359884
808	H	0.608219	0.770902	0.359884
809	H	0.686221	0.921205	0.359884
810	C	0.825445	0.687804	0.362228
811	C	0.816987	0.653501	0.362166
812	C	0.841621	0.643526	0.362228
813	C	0.875925	0.669371	0.36217
814	C	0.8859	0.703983	0.362224
815	C	0.860054	0.71244	0.36217
816	H	0.894209	0.662823	0.36246
817	H	0.866603	0.73727	0.362456
818	H	0.792156	0.635217	0.36246
819	C	0.83327	0.609271	0.363026
820	C	0.920153	0.729883	0.363023
821	C	0.799542	0.696156	0.363026
822	H	0.775418	0.676648	0.363859
823	H	0.924769	0.754007	0.363859
824	H	0.85278	0.604658	0.363865
825	C	0.746313	0.777221	0.363954
826	C	0.730085	0.741989	0.370259
827	C	0.748447	0.724413	0.370061
828	C	0.783817	0.74175	0.696591
829	C	0.799757	0.77702	0.691071
830	C	0.781589	0.79437	0.691351
831	N	0.730745	0.690711	0.377625
832	C	0.69714	0.673075	0.38495
833	C	0.679231	0.690402	0.384855
834	N	0.696307	0.724028	0.377622
835	H	0.685282	0.647752	0.390464
836	H	0.653887	0.678108	0.390327
837	H	0.794493	0.819825	0.68667
838	H	0.825231	0.790613	0.686199
839	N	0.727211	0.79243	0.364203
840	N	0.804156	0.727848	0.695077
841	C	0.752206	0.974978	0.363958
842	C	0.787438	0.993983	0.370259
843	C	0.805014	0.52992	0.370061
844	C	0.787677	0.547953	0.696591
845	C	0.752407	0.528623	0.691071
846	C	0.735055	0.993104	0.691351
847	N	0.838715	0.54592	0.377629
848	C	0.856352	0.52995	0.384957
849	C	0.839023	0.994712	0.384858
850	N	0.805397	0.978164	0.377625
851	H	0.881672	0.543415	0.390471
852	H	0.851319	0.981667	0.390334
853	H	0.709603	0.980553	0.686673
854	H	0.738813	0.540503	0.686199
855	N	0.736997	0.940668	0.364207
856	N	0.801578	0.582193	0.695077
857	C	0.999506	0.78098	0.370058
858	C	0.981474	0.745609	0.696591
859	C	0.000802	0.729669	0.691068
860	N	0.983506	0.798681	0.377622
861	C	0.999476	0.832288	0.384947
862	H	0.986009	0.844142	0.39046
863	H	0.988922	0.704194	0.686199
864	N	0.588758	0.802214	0.364203
865	N	0.947233	0.725272	0.695073
866	C	0.708923	0.834464	0.694998
867	C	0.718644	0.86909	0.694998
868	C	0.694961	0.880345	0.695001
869	C	0.660337	0.855439	0.694998
870	C	0.64908	0.820501	0.695001
871	C	0.673988	0.810782	0.694998
872	H	0.642791	0.862975	0.694851
873	H	0.66645	0.785701	0.694848
874	H	0.743724	0.886636	0.694855
875	C	0.704697	0.914996	0.694701
876	C	0.61443	0.795586	0.694694
877	C	0.733839	0.82473	0.694694
878	H	0.758523	0.843203	0.693217
879	H	0.608219	0.770902	0.693217
880	H	0.686221	0.921205	0.693217
881	C	0.825445	0.687804	0.695561
882	C	0.816987	0.653501	0.6955
883	C	0.841621	0.643526	0.695561
884	C	0.875925	0.669371	0.695503
885	C	0.8859	0.703983	0.695558
886	C	0.860054	0.71244	0.695503
887	H	0.894209	0.662823	0.695793
888	H	0.866603	0.73727	0.69579
889	H	0.792156	0.635217	0.695793
890	C	0.83327	0.609271	0.696359
891	C	0.920153	0.729883	0.696356
892	C	0.799542	0.696156	0.696359
893	H	0.775418	0.676648	0.697192
894	H	0.924769	0.754007	0.697192
895	H	0.85278	0.604658	0.697199
896	C	0.746313	0.777221	0.697287
897	C	0.730085	0.741989	0.703592
898	C	0.748447	0.724413	0.703395
899	C	0.783817	0.74175	0.029925
900	C	0.799757	0.77702	0.024404
901	C	0.781589	0.79437	0.024682
902	N	0.730745	0.690711	0.710958
903	C	0.69714	0.673075	0.718284
904	C	0.679231	0.690402	0.718188
905	N	0.696307	0.724028	0.710955
906	H	0.685282	0.647752	0.723801
907	H	0.653887	0.678108	0.723661
908	H	0.794493	0.819825	0.020004
909	H	0.825231	0.790613	0.019533
910	N	0.727211	0.79243	0.697536
911	N	0.804156	0.727848	0.028409
912	C	0.752206	0.974978	0.697291
913	C	0.787438	0.993983	0.703592
914	C	0.805014	0.52992	0.703395
915	C	0.787677	0.547953	0.029926
916	C	0.752407	0.528623	0.024404
917	C	0.735055	0.993104	0.024684
918	N	0.838715	0.54592	0.710962
919	C	0.856352	0.52995	0.71829
920	C	0.839023	0.994712	0.718192
921	N	0.805397	0.978164	0.710958
922	H	0.881672	0.543415	0.723804
923	H	0.851319	0.981667	0.723667
924	H	0.709603	0.980553	0.020005
925	H	0.738813	0.540503	0.019533
926	N	0.736997	0.940668	0.69754
927	N	0.801578	0.582193	0.028409
928	C	0.999506	0.78098	0.703391
929	C	0.981474	0.745609	0.029923
930	C	0.000802	0.729669	0.024402
931	N	0.983506	0.798681	0.710955
932	C	0.999476	0.832288	0.71828
933	H	0.986009	0.844142	0.723794
934	H	0.988922	0.704194	0.019532
935	N	0.588758	0.802214	0.697536
936	N	0.947233	0.725272	0.028407
