data_C324H180N252O108_2018-02-15_10:32:36
#******************************************
#
# CIF file created by Zeo++
# Zeo++ is an open source package to
# analyze microporous materials
#
#*******************************************

_cell_length_a		43.1574   
_cell_length_b		43.1574   
_cell_length_c		30.0854   
_cell_angle_alpha		90   
_cell_angle_beta		90   
_cell_angle_gamma		120   

_symmetry_space_group_name_H-M		'P1'
_symmetry_Int_Tables_number		1
_symmetry_cell_setting		Monoclinic

loop_
_symmetry_equiv_pos_as_xyz
'+x,+y,+z'

loop_
_atom_site_label
_atom_site_type_symbol
_atom_site_fract_x
_atom_site_fract_y
_atom_site_fract_z
1	C	0.12869	0.320949	0.296879
2	N	0.153798	0.356251	0.963875
3	C	0.189404	0.367753	0.963536
4	N	0.199605	0.342651	0.963885
5	C	0.175507	0.307042	0.963553
6	N	0.140204	0.29685	0.963902
7	C	0.215101	0.404122	0.9691
8	C	0.186175	0.281348	0.969167
9	C	0.092322	0.310263	0.969137
10	O	0.159664	0.246793	0.973125
11	O	0.084264	0.336764	0.973072
12	O	0.249658	0.41217	0.973046
13	C	0.367233	0.177055	0.381902
14	N	0.342752	0.14156	0.048293
15	C	0.30697	0.129212	0.048539
16	N	0.295955	0.153692	0.048307
17	C	0.319391	0.189473	0.048575
18	N	0.354885	0.20049	0.048326
19	C	0.281847	0.092507	0.044423
20	C	0.307816	0.214603	0.044489
21	C	0.403934	0.188623	0.044458
22	O	0.333742	0.249519	0.042395
23	O	0.412917	0.162693	0.042337
24	O	0.246932	0.083515	0.042326
25	C	0.258851	0.225932	0.027602
26	N	0.281156	0.259604	0.34544
27	C	0.270372	0.281525	0.327896
28	C	0.233455	0.269078	0.323742
29	N	0.211183	0.23567	0.006398
30	C	0.221501	0.213548	0.02495
31	H	0.289159	0.306472	0.317282
32	C	0.193728	0.180643	0.041723
33	O	0.161961	0.164468	0.02011
34	N	0.195023	0.167873	0.082316
35	H	0.215462	0.180867	0.101938
36	H	0.174199	0.146682	0.093976
37	N	0.272542	0.204832	0.040529
38	H	0.25535	0.179589	0.044726
39	N	0.221158	0.29044	0.307554
40	H	0.239245	0.31513	0.300913
41	C	0.270531	0.032222	0.027512
42	N	0.236858	0.020855	0.345353
43	C	0.214936	0.48815	0.327809
44	C	0.227383	0.46368	0.323654
45	N	0.260794	0.474818	0.006304
46	C	0.282916	0.007258	0.024852
47	H	0.189987	0.481988	0.317202
48	C	0.315825	0.012391	0.041619
49	O	0.332	0.996803	0.019998
50	N	0.328594	0.026451	0.082215
51	H	0.315599	0.033891	0.101842
52	H	0.349787	0.026818	0.093871
53	N	0.291628	0.067012	0.040449
54	H	0.316871	0.075065	0.044648
55	N	0.206014	0.430018	0.307478
56	H	0.181321	0.42341	0.300849
57	C	0.464231	0.237586	0.027571
58	N	0.475598	0.21528	0.345413
59	C	0.008303	0.226063	0.327869
60	C	0.032774	0.262981	0.323713
61	N	0.021637	0.285252	0.006367
62	C	0.489196	0.274935	0.024918
63	H	0.014464	0.207277	0.317257
64	C	0.484067	0.30271	0.04169
65	O	0.499655	0.334474	0.020074
66	N	0.470007	0.301418	0.082286
67	H	0.462565	0.280982	0.10191
68	H	0.469642	0.322244	0.093946
69	N	0.42944	0.223897	0.040502
70	H	0.421393	0.24109	0.044709
71	N	0.066433	0.275277	0.307526
72	H	0.073044	0.257193	0.300902
73	C	0.12869	0.320949	0.630212
74	N	0.153798	0.356251	0.297209
75	C	0.189404	0.367753	0.29687
76	N	0.199605	0.342651	0.297219
77	C	0.175507	0.307042	0.296885
78	N	0.140204	0.29685	0.297236
79	C	0.215101	0.404122	0.302434
80	C	0.186175	0.281348	0.302498
81	C	0.092322	0.310263	0.302468
82	O	0.159664	0.246793	0.306458
83	O	0.084264	0.336764	0.306404
84	O	0.249658	0.41217	0.306379
85	C	0.367233	0.177055	0.715237
86	N	0.342752	0.14156	0.381627
87	C	0.30697	0.129212	0.381873
88	N	0.295955	0.153692	0.38164
89	C	0.319391	0.189473	0.381909
90	N	0.354885	0.20049	0.38166
91	C	0.281847	0.092507	0.377758
92	C	0.307816	0.214603	0.377824
93	C	0.403934	0.188623	0.377791
94	O	0.333742	0.249519	0.37573
95	O	0.412917	0.162693	0.37567
96	O	0.246932	0.083515	0.37566
97	C	0.258851	0.225932	0.360935
98	N	0.281156	0.259604	0.678774
99	C	0.270372	0.281525	0.66123
100	C	0.233455	0.269078	0.657076
101	N	0.211183	0.23567	0.339733
102	C	0.221501	0.213548	0.358283
103	H	0.289159	0.306472	0.650617
104	C	0.193728	0.180643	0.375055
105	O	0.161961	0.164468	0.353443
106	N	0.195023	0.167873	0.41565
107	H	0.215462	0.180867	0.43527
108	H	0.174199	0.146682	0.42731
109	N	0.272542	0.204832	0.373862
110	H	0.25535	0.179589	0.37806
111	N	0.221158	0.29044	0.640888
112	H	0.239245	0.31513	0.634247
113	C	0.270531	0.032222	0.360846
114	N	0.236858	0.020855	0.678687
115	C	0.214936	0.48815	0.661144
116	C	0.227383	0.46368	0.656989
117	N	0.260794	0.474818	0.339636
118	C	0.282916	0.007258	0.358187
119	H	0.189987	0.481988	0.650534
120	C	0.315825	0.012391	0.374952
121	O	0.332	0.996803	0.35333
122	N	0.328594	0.026451	0.41555
123	H	0.315599	0.033891	0.435174
124	H	0.349787	0.026818	0.427203
125	N	0.291628	0.067012	0.373782
126	H	0.316871	0.075065	0.37798
127	N	0.206014	0.430018	0.640812
128	H	0.181321	0.42341	0.634184
129	C	0.464231	0.237586	0.360906
130	N	0.475598	0.21528	0.678747
131	C	0.008303	0.226063	0.661204
132	C	0.032774	0.262981	0.657046
133	N	0.021637	0.285252	0.339699
134	C	0.489196	0.274935	0.358253
135	H	0.014464	0.207277	0.650591
136	C	0.484067	0.30271	0.375022
137	O	0.499655	0.334474	0.353407
138	N	0.470007	0.301418	0.41562
139	H	0.462565	0.280982	0.435244
140	H	0.469642	0.322244	0.42728
141	N	0.42944	0.223897	0.373835
142	H	0.421393	0.24109	0.378043
143	N	0.066433	0.275277	0.640858
144	H	0.073044	0.257193	0.634237
145	C	0.12869	0.320949	0.963546
146	N	0.153798	0.356251	0.630541
147	C	0.189404	0.367753	0.630205
148	N	0.199605	0.342651	0.630554
149	C	0.175507	0.307042	0.630219
150	N	0.140204	0.29685	0.630568
151	C	0.215101	0.404122	0.63577
152	C	0.186175	0.281348	0.635833
153	C	0.092322	0.310263	0.635803
154	O	0.159664	0.246793	0.639791
155	O	0.084264	0.336764	0.639738
156	O	0.249658	0.41217	0.639712
157	C	0.367233	0.177055	0.048569
158	N	0.342752	0.14156	0.714961
159	C	0.30697	0.129212	0.715207
160	N	0.295955	0.153692	0.714974
161	C	0.319391	0.189473	0.715243
162	N	0.354885	0.20049	0.714994
163	C	0.281847	0.092507	0.711092
164	C	0.307816	0.214603	0.711158
165	C	0.403934	0.188623	0.711125
166	O	0.333742	0.249519	0.709064
167	O	0.412917	0.162693	0.709004
168	O	0.246932	0.083515	0.708994
169	C	0.258851	0.225932	0.69427
170	N	0.281156	0.259604	0.012107
171	C	0.270372	0.281525	0.994564
172	C	0.233455	0.269078	0.99041
173	N	0.211183	0.23567	0.673067
174	C	0.221501	0.213548	0.691617
175	H	0.289159	0.306472	0.983951
176	C	0.193728	0.180643	0.708389
177	O	0.161961	0.164468	0.686778
178	N	0.195023	0.167873	0.748984
179	H	0.215462	0.180867	0.768605
180	H	0.174199	0.146682	0.760644
181	N	0.272542	0.204832	0.707196
182	H	0.25535	0.179589	0.711394
183	N	0.221158	0.29044	0.974222
184	H	0.239245	0.31513	0.967581
185	C	0.270531	0.032222	0.69418
186	N	0.236858	0.020855	0.012021
187	C	0.214936	0.48815	0.994478
188	C	0.227383	0.46368	0.99032
189	N	0.260794	0.474818	0.67297
190	C	0.282916	0.007258	0.691517
191	H	0.189987	0.481988	0.983868
192	C	0.315825	0.012391	0.708286
193	O	0.332	0.996803	0.686665
194	N	0.328594	0.026451	0.748881
195	H	0.315599	0.033891	0.768508
196	H	0.349787	0.026818	0.760538
197	N	0.291628	0.067012	0.707116
198	H	0.316871	0.075065	0.711314
199	N	0.206014	0.430018	0.974146
200	H	0.181321	0.42341	0.967515
201	C	0.464231	0.237586	0.69424
202	N	0.475598	0.21528	0.012079
203	C	0.008303	0.226063	0.994538
204	C	0.032774	0.262981	0.99038
205	N	0.021637	0.285252	0.673033
206	C	0.489196	0.274935	0.691587
207	H	0.014464	0.207277	0.983925
208	C	0.484067	0.30271	0.708356
209	O	0.499655	0.334474	0.686741
210	N	0.470007	0.301418	0.748954
211	H	0.462565	0.280982	0.768578
212	H	0.469642	0.322244	0.760614
213	N	0.42944	0.223897	0.70717
214	H	0.421393	0.24109	0.711378
215	N	0.066433	0.275277	0.974192
216	H	0.073044	0.257193	0.967571
217	C	0.12869	0.820949	0.296879
218	N	0.153799	0.856251	0.963875
219	C	0.189404	0.867753	0.963536
220	N	0.199605	0.842651	0.963885
221	C	0.175507	0.807042	0.963553
222	N	0.140203	0.796851	0.963902
223	C	0.2151	0.904122	0.9691
224	C	0.186175	0.781348	0.969167
225	C	0.092323	0.810263	0.969137
226	O	0.159664	0.746794	0.973125
227	O	0.084263	0.836765	0.973072
228	O	0.249658	0.91217	0.973046
229	C	0.367233	0.677055	0.381902
230	N	0.342753	0.641561	0.048293
231	C	0.30697	0.629214	0.048539
232	N	0.295955	0.653692	0.048307
233	C	0.319391	0.689472	0.048575
234	N	0.354886	0.70049	0.048326
235	C	0.281848	0.592508	0.044423
236	C	0.307817	0.714604	0.044489
237	C	0.403935	0.688624	0.044458
238	O	0.333743	0.74952	0.042395
239	O	0.412918	0.662693	0.042338
240	O	0.246933	0.583515	0.042326
241	C	0.258851	0.725932	0.027602
242	N	0.281156	0.759604	0.34544
243	C	0.270373	0.781525	0.327896
244	C	0.233455	0.769078	0.323742
245	N	0.211184	0.735671	0.006399
246	C	0.221502	0.71355	0.02495
247	H	0.289159	0.806472	0.317282
248	C	0.193728	0.680643	0.041723
249	O	0.161962	0.664469	0.02011
250	N	0.195023	0.667873	0.082316
251	H	0.215463	0.680868	0.101938
252	H	0.1742	0.646682	0.093976
253	N	0.272543	0.704833	0.040529
254	H	0.25535	0.679589	0.044726
255	N	0.221159	0.79044	0.307554
256	H	0.239245	0.81513	0.300913
257	C	0.270531	0.532222	0.027512
258	N	0.236857	0.520853	0.345353
259	C	0.214936	0.98815	0.327809
260	C	0.227383	0.96368	0.323654
261	N	0.260794	0.974818	0.006304
262	C	0.282917	0.507259	0.024852
263	H	0.189987	0.981989	0.317202
264	C	0.315824	0.512391	0.041619
265	O	0.331999	0.496803	0.019998
266	N	0.328594	0.526451	0.082215
267	H	0.3156	0.533891	0.101842
268	H	0.349787	0.526817	0.093871
269	N	0.291629	0.567012	0.040449
270	H	0.316871	0.575066	0.044648
271	N	0.206013	0.930019	0.307478
272	H	0.181322	0.92341	0.300849
273	C	0.464231	0.737587	0.027571
274	N	0.475598	0.715281	0.345413
275	C	0.008305	0.726063	0.327869
276	C	0.032774	0.762981	0.323713
277	N	0.021638	0.785252	0.006367
278	C	0.489197	0.774935	0.024918
279	H	0.014463	0.707276	0.317257
280	C	0.484067	0.80271	0.04169
281	O	0.499655	0.834474	0.020074
282	N	0.470007	0.801418	0.082286
283	H	0.462565	0.780982	0.10191
284	H	0.469641	0.822244	0.093946
285	N	0.42944	0.723896	0.040502
286	H	0.421392	0.741089	0.044709
287	N	0.066433	0.775278	0.307526
288	H	0.073043	0.757194	0.300902
289	C	0.12869	0.820949	0.630212
290	N	0.153799	0.856251	0.297209
291	C	0.189404	0.867753	0.29687
292	N	0.199605	0.842651	0.297219
293	C	0.175507	0.807042	0.296885
294	N	0.140203	0.796851	0.297236
295	C	0.2151	0.904122	0.302434
296	C	0.186175	0.781348	0.302498
297	C	0.092323	0.810263	0.302468
298	O	0.159664	0.746794	0.306458
299	O	0.084263	0.836765	0.306404
300	O	0.249658	0.91217	0.306379
301	C	0.367233	0.677055	0.715237
302	N	0.342753	0.641561	0.381627
303	C	0.30697	0.629214	0.381873
304	N	0.295955	0.653692	0.38164
305	C	0.319391	0.689472	0.381909
306	N	0.354886	0.70049	0.38166
307	C	0.281848	0.592508	0.377758
308	C	0.307817	0.714604	0.377824
309	C	0.403935	0.688624	0.377791
310	O	0.333743	0.74952	0.37573
311	O	0.412918	0.662693	0.37567
312	O	0.246933	0.583515	0.37566
313	C	0.258851	0.725932	0.360935
314	N	0.281156	0.759604	0.678774
315	C	0.270373	0.781525	0.66123
316	C	0.233455	0.769078	0.657076
317	N	0.211184	0.735671	0.339733
318	C	0.221502	0.71355	0.358283
319	H	0.289159	0.806472	0.650617
320	C	0.193728	0.680643	0.375055
321	O	0.161962	0.664469	0.353443
322	N	0.195023	0.667873	0.41565
323	H	0.215463	0.680868	0.43527
324	H	0.1742	0.646682	0.42731
325	N	0.272543	0.704833	0.373862
326	H	0.25535	0.679589	0.37806
327	N	0.221159	0.79044	0.640888
328	H	0.239245	0.81513	0.634247
329	C	0.270531	0.532222	0.360846
330	N	0.236857	0.520853	0.678687
331	C	0.214936	0.98815	0.661144
332	C	0.227383	0.96368	0.656989
333	N	0.260794	0.974818	0.339636
334	C	0.282917	0.507259	0.358187
335	H	0.189987	0.981989	0.650534
336	C	0.315824	0.512391	0.374952
337	O	0.331999	0.496803	0.35333
338	N	0.328594	0.526451	0.41555
339	H	0.3156	0.533891	0.435174
340	H	0.349787	0.526817	0.427203
341	N	0.291629	0.567012	0.373782
342	H	0.316871	0.575066	0.37798
343	N	0.206013	0.930019	0.640812
344	H	0.181322	0.92341	0.634184
345	C	0.464231	0.737587	0.360906
346	N	0.475598	0.715281	0.678747
347	C	0.008305	0.726063	0.661204
348	C	0.032774	0.762981	0.657046
349	N	0.021638	0.785252	0.339699
350	C	0.489197	0.774935	0.358253
351	H	0.014463	0.707276	0.650591
352	C	0.484067	0.80271	0.375022
353	O	0.499655	0.834474	0.353407
354	N	0.470007	0.801418	0.41562
355	H	0.462565	0.780982	0.435244
356	H	0.469641	0.822244	0.42728
357	N	0.42944	0.723896	0.373835
358	H	0.421392	0.741089	0.378043
359	N	0.066433	0.775278	0.640858
360	H	0.073043	0.757194	0.634237
361	C	0.12869	0.820949	0.963546
362	N	0.153799	0.856251	0.630541
363	C	0.189404	0.867753	0.630205
364	N	0.199605	0.842651	0.630554
365	C	0.175507	0.807042	0.630219
366	N	0.140203	0.796851	0.630568
367	C	0.2151	0.904122	0.63577
368	C	0.186175	0.781348	0.635833
369	C	0.092323	0.810263	0.635803
370	O	0.159664	0.746794	0.639791
371	O	0.084263	0.836765	0.639738
372	O	0.249658	0.91217	0.639712
373	C	0.367233	0.677055	0.048569
374	N	0.342753	0.641561	0.714961
375	C	0.30697	0.629214	0.715207
376	N	0.295955	0.653692	0.714974
377	C	0.319391	0.689472	0.715243
378	N	0.354886	0.70049	0.714994
379	C	0.281848	0.592508	0.711092
380	C	0.307817	0.714604	0.711158
381	C	0.403935	0.688624	0.711125
382	O	0.333743	0.74952	0.709064
383	O	0.412918	0.662693	0.709004
384	O	0.246933	0.583515	0.708994
385	C	0.258851	0.725932	0.69427
386	N	0.281156	0.759604	0.012107
387	C	0.270373	0.781525	0.994564
388	C	0.233455	0.769078	0.99041
389	N	0.211184	0.735671	0.673067
390	C	0.221502	0.71355	0.691617
391	H	0.289159	0.806472	0.983951
392	C	0.193728	0.680643	0.708389
393	O	0.161962	0.664469	0.686778
394	N	0.195023	0.667873	0.748984
395	H	0.215463	0.680868	0.768605
396	H	0.1742	0.646682	0.760644
397	N	0.272543	0.704833	0.707196
398	H	0.25535	0.679589	0.711394
399	N	0.221159	0.79044	0.974222
400	H	0.239245	0.81513	0.967581
401	C	0.270531	0.532222	0.69418
402	N	0.236857	0.520853	0.012021
403	C	0.214936	0.98815	0.994478
404	C	0.227383	0.96368	0.99032
405	N	0.260794	0.974818	0.67297
406	C	0.282917	0.507259	0.691517
407	H	0.189987	0.981989	0.983868
408	C	0.315824	0.512391	0.708286
409	O	0.331999	0.496803	0.686665
410	N	0.328594	0.526451	0.748881
411	H	0.3156	0.533891	0.768508
412	H	0.349787	0.526817	0.760538
413	N	0.291629	0.567012	0.707116
414	H	0.316871	0.575066	0.711314
415	N	0.206013	0.930019	0.974146
416	H	0.181322	0.92341	0.967515
417	C	0.464231	0.737587	0.69424
418	N	0.475598	0.715281	0.012079
419	C	0.008305	0.726063	0.994538
420	C	0.032774	0.762981	0.99038
421	N	0.021638	0.785252	0.673033
422	C	0.489197	0.774935	0.691587
423	H	0.014463	0.707276	0.983925
424	C	0.484067	0.80271	0.708356
425	O	0.499655	0.834474	0.686741
426	N	0.470007	0.801418	0.748954
427	H	0.462565	0.780982	0.768578
428	H	0.469641	0.822244	0.760614
429	N	0.42944	0.723896	0.70717
430	H	0.421392	0.741089	0.711378
431	N	0.066433	0.775278	0.974192
432	H	0.073043	0.757194	0.967571
433	C	0.628689	0.320949	0.296879
434	N	0.653798	0.356251	0.963875
435	C	0.689405	0.367753	0.963536
436	N	0.699606	0.342651	0.963885
437	C	0.675508	0.307042	0.963553
438	N	0.640204	0.29685	0.963902
439	C	0.715101	0.404122	0.9691
440	C	0.686175	0.281348	0.969167
441	C	0.592322	0.310263	0.969137
442	O	0.659664	0.246793	0.973125
443	O	0.584265	0.336764	0.973072
444	O	0.749658	0.41217	0.973046
445	C	0.867233	0.177055	0.381902
446	N	0.842752	0.14156	0.048293
447	C	0.80697	0.129212	0.048539
448	N	0.795955	0.153692	0.048307
449	C	0.819391	0.189473	0.048575
450	N	0.854885	0.20049	0.048326
451	C	0.781847	0.092507	0.044423
452	C	0.807816	0.214603	0.044489
453	C	0.903934	0.188623	0.044458
454	O	0.833743	0.249519	0.042395
455	O	0.912917	0.162693	0.042337
456	O	0.746932	0.083515	0.042326
457	C	0.758851	0.225932	0.027602
458	N	0.781157	0.259604	0.34544
459	C	0.770372	0.281525	0.327896
460	C	0.733454	0.269078	0.323742
461	N	0.711184	0.23567	0.006398
462	C	0.721501	0.213548	0.02495
463	H	0.789159	0.306472	0.317282
464	C	0.693727	0.180643	0.041723
465	O	0.661961	0.164468	0.02011
466	N	0.695023	0.167873	0.082316
467	H	0.715462	0.180867	0.101938
468	H	0.6742	0.146682	0.093976
469	N	0.772542	0.204832	0.040529
470	H	0.755351	0.179589	0.044726
471	N	0.721158	0.29044	0.307554
472	H	0.739245	0.31513	0.300913
473	C	0.770531	0.032222	0.027512
474	N	0.736859	0.020855	0.345353
475	C	0.714935	0.48815	0.327809
476	C	0.727382	0.46368	0.323654
477	N	0.760793	0.474818	0.006304
478	C	0.782916	0.007258	0.024852
479	H	0.689988	0.481988	0.317202
480	C	0.815822	0.012391	0.041619
481	O	0.831999	0.996803	0.019998
482	N	0.828594	0.026451	0.082215
483	H	0.815599	0.033891	0.101842
484	H	0.849787	0.026818	0.093871
485	N	0.791628	0.067012	0.040449
486	H	0.816871	0.075065	0.044648
487	N	0.706014	0.430018	0.307478
488	H	0.681321	0.42341	0.300849
489	C	0.964231	0.237586	0.027571
490	N	0.975598	0.21528	0.345413
491	C	0.508303	0.226063	0.327869
492	C	0.532775	0.262981	0.323713
493	N	0.521636	0.285252	0.006367
494	C	0.989196	0.274935	0.024918
495	H	0.514465	0.207277	0.317257
496	C	0.984067	0.30271	0.04169
497	O	0.999655	0.334474	0.020074
498	N	0.970007	0.301418	0.082286
499	H	0.962565	0.280982	0.10191
500	H	0.969642	0.322244	0.093946
501	N	0.92944	0.223897	0.040502
502	H	0.921393	0.24109	0.044709
503	N	0.566434	0.275277	0.307526
504	H	0.573044	0.257193	0.300902
505	C	0.628689	0.320949	0.630212
506	N	0.653798	0.356251	0.297209
507	C	0.689405	0.367753	0.29687
508	N	0.699606	0.342651	0.297219
509	C	0.675508	0.307042	0.296885
510	N	0.640204	0.29685	0.297236
511	C	0.715101	0.404122	0.302434
512	C	0.686175	0.281348	0.302498
513	C	0.592322	0.310263	0.302468
514	O	0.659664	0.246793	0.306458
515	O	0.584265	0.336764	0.306404
516	O	0.749658	0.41217	0.306379
517	C	0.867233	0.177055	0.715237
518	N	0.842752	0.14156	0.381627
519	C	0.80697	0.129212	0.381873
520	N	0.795955	0.153692	0.38164
521	C	0.819391	0.189473	0.381909
522	N	0.854885	0.20049	0.38166
523	C	0.781847	0.092507	0.377758
524	C	0.807816	0.214603	0.377824
525	C	0.903934	0.188623	0.377791
526	O	0.833743	0.249519	0.37573
527	O	0.912917	0.162693	0.37567
528	O	0.746932	0.083515	0.37566
529	C	0.758851	0.225932	0.360935
530	N	0.781157	0.259604	0.678774
531	C	0.770372	0.281525	0.66123
532	C	0.733454	0.269078	0.657076
533	N	0.711184	0.23567	0.339733
534	C	0.721501	0.213548	0.358283
535	H	0.789159	0.306472	0.650617
536	C	0.693727	0.180643	0.375055
537	O	0.661961	0.164468	0.353443
538	N	0.695023	0.167873	0.41565
539	H	0.715462	0.180867	0.43527
540	H	0.6742	0.146682	0.42731
541	N	0.772542	0.204832	0.373862
542	H	0.755351	0.179589	0.37806
543	N	0.721158	0.29044	0.640888
544	H	0.739245	0.31513	0.634247
545	C	0.770531	0.032222	0.360846
546	N	0.736859	0.020855	0.678687
547	C	0.714935	0.48815	0.661144
548	C	0.727382	0.46368	0.656989
549	N	0.760793	0.474818	0.339636
550	C	0.782916	0.007258	0.358187
551	H	0.689988	0.481988	0.650534
552	C	0.815822	0.012391	0.374952
553	O	0.831999	0.996803	0.35333
554	N	0.828594	0.026451	0.41555
555	H	0.815599	0.033891	0.435174
556	H	0.849787	0.026818	0.427203
557	N	0.791628	0.067012	0.373782
558	H	0.816871	0.075065	0.37798
559	N	0.706014	0.430018	0.640812
560	H	0.681321	0.42341	0.634184
561	C	0.964231	0.237586	0.360906
562	N	0.975598	0.21528	0.678747
563	C	0.508303	0.226063	0.661204
564	C	0.532775	0.262981	0.657046
565	N	0.521636	0.285252	0.339699
566	C	0.989196	0.274935	0.358253
567	H	0.514465	0.207277	0.650591
568	C	0.984067	0.30271	0.375022
569	O	0.999655	0.334474	0.353407
570	N	0.970007	0.301418	0.41562
571	H	0.962565	0.280982	0.435244
572	H	0.969642	0.322244	0.42728
573	N	0.92944	0.223897	0.373835
574	H	0.921393	0.24109	0.378043
575	N	0.566434	0.275277	0.640858
576	H	0.573044	0.257193	0.634237
577	C	0.628689	0.320949	0.963546
578	N	0.653798	0.356251	0.630541
579	C	0.689405	0.367753	0.630205
580	N	0.699606	0.342651	0.630554
581	C	0.675508	0.307042	0.630219
582	N	0.640204	0.29685	0.630568
583	C	0.715101	0.404122	0.63577
584	C	0.686175	0.281348	0.635833
585	C	0.592322	0.310263	0.635803
586	O	0.659664	0.246793	0.639791
587	O	0.584265	0.336764	0.639738
588	O	0.749658	0.41217	0.639712
589	C	0.867233	0.177055	0.048569
590	N	0.842752	0.14156	0.714961
591	C	0.80697	0.129212	0.715207
592	N	0.795955	0.153692	0.714974
593	C	0.819391	0.189473	0.715243
594	N	0.854885	0.20049	0.714994
595	C	0.781847	0.092507	0.711092
596	C	0.807816	0.214603	0.711158
597	C	0.903934	0.188623	0.711125
598	O	0.833743	0.249519	0.709064
599	O	0.912917	0.162693	0.709004
600	O	0.746932	0.083515	0.708994
601	C	0.758851	0.225932	0.69427
602	N	0.781157	0.259604	0.012107
603	C	0.770372	0.281525	0.994564
604	C	0.733454	0.269078	0.99041
605	N	0.711184	0.23567	0.673067
606	C	0.721501	0.213548	0.691617
607	H	0.789159	0.306472	0.983951
608	C	0.693727	0.180643	0.708389
609	O	0.661961	0.164468	0.686778
610	N	0.695023	0.167873	0.748984
611	H	0.715462	0.180867	0.768605
612	H	0.6742	0.146682	0.760644
613	N	0.772542	0.204832	0.707196
614	H	0.755351	0.179589	0.711394
615	N	0.721158	0.29044	0.974222
616	H	0.739245	0.31513	0.967581
617	C	0.770531	0.032222	0.69418
618	N	0.736859	0.020855	0.012021
619	C	0.714935	0.48815	0.994478
620	C	0.727382	0.46368	0.99032
621	N	0.760793	0.474818	0.67297
622	C	0.782916	0.007258	0.691517
623	H	0.689988	0.481988	0.983868
624	C	0.815822	0.012391	0.708286
625	O	0.831999	0.996803	0.686665
626	N	0.828594	0.026451	0.748881
627	H	0.815599	0.033891	0.768508
628	H	0.849787	0.026818	0.760538
629	N	0.791628	0.067012	0.707116
630	H	0.816871	0.075065	0.711314
631	N	0.706014	0.430018	0.974146
632	H	0.681321	0.42341	0.967515
633	C	0.964231	0.237586	0.69424
634	N	0.975598	0.21528	0.012079
635	C	0.508303	0.226063	0.994538
636	C	0.532775	0.262981	0.99038
637	N	0.521636	0.285252	0.673033
638	C	0.989196	0.274935	0.691587
639	H	0.514465	0.207277	0.983925
640	C	0.984067	0.30271	0.708356
641	O	0.999655	0.334474	0.686741
642	N	0.970007	0.301418	0.748954
643	H	0.962565	0.280982	0.768578
644	H	0.969642	0.322244	0.760614
645	N	0.92944	0.223897	0.70717
646	H	0.921393	0.24109	0.711378
647	N	0.566434	0.275277	0.974192
648	H	0.573044	0.257193	0.967571
649	C	0.628689	0.820949	0.296879
650	N	0.653798	0.856251	0.963875
651	C	0.689404	0.867753	0.963536
652	N	0.699604	0.842651	0.963885
653	C	0.675507	0.807042	0.963553
654	N	0.640203	0.796851	0.963902
655	C	0.7151	0.904122	0.9691
656	C	0.686174	0.781348	0.969167
657	C	0.592322	0.810263	0.969137
658	O	0.659665	0.746794	0.973125
659	O	0.584264	0.836765	0.973072
660	O	0.749657	0.91217	0.973046
661	C	0.867234	0.677055	0.381902
662	N	0.842754	0.641561	0.048293
663	C	0.80697	0.629214	0.048539
664	N	0.795955	0.653692	0.048307
665	C	0.819392	0.689472	0.048575
666	N	0.854886	0.70049	0.048326
667	C	0.781848	0.592508	0.044423
668	C	0.807816	0.714604	0.044489
669	C	0.903936	0.688624	0.044458
670	O	0.833743	0.74952	0.042395
671	O	0.912918	0.662693	0.042338
672	O	0.746933	0.583515	0.042326
673	C	0.758852	0.725932	0.027602
674	N	0.781156	0.759604	0.34544
675	C	0.770373	0.781525	0.327896
676	C	0.733455	0.769078	0.323742
677	N	0.711184	0.735671	0.006399
678	C	0.721503	0.71355	0.02495
679	H	0.789158	0.806472	0.317282
680	C	0.693728	0.680643	0.041723
681	O	0.661963	0.664469	0.02011
682	N	0.695024	0.667873	0.082316
683	H	0.715463	0.680868	0.101938
684	H	0.674199	0.646682	0.093976
685	N	0.772544	0.704833	0.040529
686	H	0.75535	0.679589	0.044726
687	N	0.721159	0.79044	0.307554
688	H	0.739244	0.81513	0.300913
689	C	0.770532	0.532222	0.027512
690	N	0.736857	0.520853	0.345353
691	C	0.714936	0.98815	0.327809
692	C	0.727383	0.96368	0.323654
693	N	0.760794	0.974818	0.006304
694	C	0.782918	0.507259	0.024852
695	H	0.689987	0.981989	0.317202
696	C	0.815824	0.512391	0.041619
697	O	0.832	0.496803	0.019998
698	N	0.828593	0.526451	0.082215
699	H	0.8156	0.533891	0.101842
700	H	0.849786	0.526817	0.093871
701	N	0.791628	0.567012	0.040449
702	H	0.816872	0.575066	0.044648
703	N	0.706013	0.930019	0.307478
704	H	0.681321	0.92341	0.300849
705	C	0.96423	0.737587	0.027571
706	N	0.975597	0.715281	0.345413
707	C	0.508303	0.726063	0.327869
708	C	0.532774	0.762981	0.323713
709	N	0.521637	0.785252	0.006367
710	C	0.989198	0.774935	0.024918
711	H	0.514464	0.707276	0.317257
712	C	0.984066	0.80271	0.04169
713	O	0.999656	0.834474	0.020074
714	N	0.970006	0.801418	0.082286
715	H	0.962564	0.780982	0.10191
716	H	0.969641	0.822244	0.093946
717	N	0.929441	0.723896	0.040502
718	H	0.921391	0.741089	0.044709
719	N	0.566433	0.775278	0.307526
720	H	0.573044	0.757194	0.300902
721	C	0.628689	0.820949	0.630212
722	N	0.653798	0.856251	0.297209
723	C	0.689404	0.867753	0.29687
724	N	0.699604	0.842651	0.297219
725	C	0.675507	0.807042	0.296885
726	N	0.640203	0.796851	0.297236
727	C	0.7151	0.904122	0.302434
728	C	0.686174	0.781348	0.302498
729	C	0.592322	0.810263	0.302468
730	O	0.659665	0.746794	0.306458
731	O	0.584264	0.836765	0.306404
732	O	0.749657	0.91217	0.306379
733	C	0.867234	0.677055	0.715237
734	N	0.842754	0.641561	0.381627
735	C	0.80697	0.629214	0.381873
736	N	0.795955	0.653692	0.38164
737	C	0.819392	0.689472	0.381909
738	N	0.854886	0.70049	0.38166
739	C	0.781848	0.592508	0.377758
740	C	0.807816	0.714604	0.377824
741	C	0.903936	0.688624	0.377791
742	O	0.833743	0.74952	0.37573
743	O	0.912918	0.662693	0.37567
744	O	0.746933	0.583515	0.37566
745	C	0.758852	0.725932	0.360935
746	N	0.781156	0.759604	0.678774
747	C	0.770373	0.781525	0.66123
748	C	0.733455	0.769078	0.657076
749	N	0.711184	0.735671	0.339733
750	C	0.721503	0.71355	0.358283
751	H	0.789158	0.806472	0.650617
752	C	0.693728	0.680643	0.375055
753	O	0.661963	0.664469	0.353443
754	N	0.695024	0.667873	0.41565
755	H	0.715463	0.680868	0.43527
756	H	0.674199	0.646682	0.42731
757	N	0.772544	0.704833	0.373862
758	H	0.75535	0.679589	0.37806
759	N	0.721159	0.79044	0.640888
760	H	0.739244	0.81513	0.634247
761	C	0.770532	0.532222	0.360846
762	N	0.736857	0.520853	0.678687
763	C	0.714936	0.98815	0.661144
764	C	0.727383	0.96368	0.656989
765	N	0.760794	0.974818	0.339636
766	C	0.782918	0.507259	0.358187
767	H	0.689987	0.981989	0.650534
768	C	0.815824	0.512391	0.374952
769	O	0.832	0.496803	0.35333
770	N	0.828593	0.526451	0.41555
771	H	0.8156	0.533891	0.435174
772	H	0.849786	0.526817	0.427203
773	N	0.791628	0.567012	0.373782
774	H	0.816872	0.575066	0.37798
775	N	0.706013	0.930019	0.640812
776	H	0.681321	0.92341	0.634184
777	C	0.96423	0.737587	0.360906
778	N	0.975597	0.715281	0.678747
779	C	0.508303	0.726063	0.661204
780	C	0.532774	0.762981	0.657046
781	N	0.521637	0.785252	0.339699
782	C	0.989198	0.774935	0.358253
783	H	0.514464	0.707276	0.650591
784	C	0.984066	0.80271	0.375022
785	O	0.999656	0.834474	0.353407
786	N	0.970006	0.801418	0.41562
787	H	0.962564	0.780982	0.435244
788	H	0.969641	0.822244	0.42728
789	N	0.929441	0.723896	0.373835
790	H	0.921391	0.741089	0.378043
791	N	0.566433	0.775278	0.640858
792	H	0.573044	0.757194	0.634237
793	C	0.628689	0.820949	0.963546
794	N	0.653798	0.856251	0.630541
795	C	0.689404	0.867753	0.630205
796	N	0.699604	0.842651	0.630554
797	C	0.675507	0.807042	0.630219
798	N	0.640203	0.796851	0.630568
799	C	0.7151	0.904122	0.63577
800	C	0.686174	0.781348	0.635833
801	C	0.592322	0.810263	0.635803
802	O	0.659665	0.746794	0.639791
803	O	0.584264	0.836765	0.639738
804	O	0.749657	0.91217	0.639712
805	C	0.867234	0.677055	0.048569
806	N	0.842754	0.641561	0.714961
807	C	0.80697	0.629214	0.715207
808	N	0.795955	0.653692	0.714974
809	C	0.819392	0.689472	0.715243
810	N	0.854886	0.70049	0.714994
811	C	0.781848	0.592508	0.711092
812	C	0.807816	0.714604	0.711158
813	C	0.903936	0.688624	0.711125
814	O	0.833743	0.74952	0.709064
815	O	0.912918	0.662693	0.709004
816	O	0.746933	0.583515	0.708994
817	C	0.758852	0.725932	0.69427
818	N	0.781156	0.759604	0.012107
819	C	0.770373	0.781525	0.994564
820	C	0.733455	0.769078	0.99041
821	N	0.711184	0.735671	0.673067
822	C	0.721503	0.71355	0.691617
823	H	0.789158	0.806472	0.983951
824	C	0.693728	0.680643	0.708389
825	O	0.661963	0.664469	0.686778
826	N	0.695024	0.667873	0.748984
827	H	0.715463	0.680868	0.768605
828	H	0.674199	0.646682	0.760644
829	N	0.772544	0.704833	0.707196
830	H	0.75535	0.679589	0.711394
831	N	0.721159	0.79044	0.974222
832	H	0.739244	0.81513	0.967581
833	C	0.770532	0.532222	0.69418
834	N	0.736857	0.520853	0.012021
835	C	0.714936	0.98815	0.994478
836	C	0.727383	0.96368	0.99032
837	N	0.760794	0.974818	0.67297
838	C	0.782918	0.507259	0.691517
839	H	0.689987	0.981989	0.983868
840	C	0.815824	0.512391	0.708286
841	O	0.832	0.496803	0.686665
842	N	0.828593	0.526451	0.748881
843	H	0.8156	0.533891	0.768508
844	H	0.849786	0.526817	0.760538
845	N	0.791628	0.567012	0.707116
846	H	0.816872	0.575066	0.711314
847	N	0.706013	0.930019	0.974146
848	H	0.681321	0.92341	0.967515
849	C	0.96423	0.737587	0.69424
850	N	0.975597	0.715281	0.012079
851	C	0.508303	0.726063	0.994538
852	C	0.532774	0.762981	0.99038
853	N	0.521637	0.785252	0.673033
854	C	0.989198	0.774935	0.691587
855	H	0.514464	0.707276	0.983925
856	C	0.984066	0.80271	0.708356
857	O	0.999656	0.834474	0.686741
858	N	0.970006	0.801418	0.748954
859	H	0.962564	0.780982	0.768578
860	H	0.969641	0.822244	0.760614
861	N	0.929441	0.723896	0.70717
862	H	0.921391	0.741089	0.711378
863	N	0.566433	0.775278	0.974192
864	H	0.573044	0.757194	0.967571
