data_C720H432N216_2018-02-15_10:43:33
#******************************************
#
# CIF file created by Zeo++
# Zeo++ is an open source package to
# analyze microporous materials
#
#*******************************************

_cell_length_a		46.5253   
_cell_length_b		46.5252   
_cell_length_c		29.59   
_cell_angle_alpha		90   
_cell_angle_beta		90   
_cell_angle_gamma		120   

_symmetry_space_group_name_H-M		'P1'
_symmetry_Int_Tables_number		1
_symmetry_cell_setting		Monoclinic

loop_
_symmetry_equiv_pos_as_xyz
'+x,+y,+z'

loop_
_atom_site_label
_atom_site_type_symbol
_atom_site_fract_x
_atom_site_fract_y
_atom_site_fract_z
1	C	0.028466	0.265832	0.025043
2	C	0.047877	0.301452	0.356644
3	C	0.081411	0.31886	0.342285
4	C	0.096769	0.299769	0.000991
5	C	0.081566	0.265415	0.00998
6	C	0.04751	0.249275	0.021991
7	H	0.037232	0.315703	0.361433
8	H	0.12177	0.312308	0.994486
9	H	0.036348	0.224187	0.024576
10	C	0.140328	0.234259	0.039583
11	C	0.109769	0.234626	0.041884
12	C	0.102192	0.250789	0.00653
13	N	0.124401	0.262923	0.305282
14	N	0.09121	0.223018	0.080072
15	H	0.097448	0.213026	0.104261
16	H	0.071119	0.224027	0.084536
17	C	0.101922	0.353924	0.004533
18	C	0.107835	0.376898	0.039651
19	C	0.138695	0.407525	0.041992
20	N	0.124913	0.364879	0.304412
21	H	0.129349	0.419773	0.104378
22	H	0.092491	0.369081	0.067222
23	C	0.028466	0.265832	0.358375
24	C	0.047877	0.301452	0.689977
25	C	0.081411	0.31886	0.675617
26	C	0.096769	0.299769	0.334323
27	C	0.081566	0.265415	0.343312
28	C	0.04751	0.249275	0.355323
29	H	0.037232	0.315703	0.694766
30	H	0.12177	0.312308	0.327818
31	H	0.036348	0.224187	0.357908
32	C	0.140328	0.234259	0.372917
33	C	0.109769	0.234626	0.375218
34	C	0.102192	0.250789	0.339865
35	N	0.124401	0.262923	0.638615
36	N	0.09121	0.223018	0.413407
37	H	0.097448	0.213026	0.437594
38	H	0.071119	0.224027	0.417868
39	C	0.101922	0.353924	0.337868
40	C	0.107835	0.376898	0.372984
41	C	0.138695	0.407525	0.375326
42	N	0.124913	0.364879	0.637746
43	H	0.129349	0.419773	0.437709
44	H	0.092491	0.369081	0.400555
45	C	0.028466	0.265832	0.691707
46	C	0.047877	0.301452	0.023312
47	C	0.081411	0.31886	0.008951
48	C	0.096769	0.299769	0.667655
49	C	0.081566	0.265415	0.676645
50	C	0.04751	0.249275	0.688656
51	H	0.037232	0.315703	0.0281
52	H	0.12177	0.312308	0.66115
53	H	0.036348	0.224187	0.691241
54	C	0.140328	0.234259	0.706249
55	C	0.109769	0.234626	0.708551
56	C	0.102192	0.250789	0.673198
57	N	0.124401	0.262923	0.971948
58	N	0.09121	0.223018	0.746739
59	H	0.097448	0.213026	0.770927
60	H	0.071119	0.224027	0.7512
61	C	0.101922	0.353924	0.6712
62	C	0.107835	0.376898	0.706317
63	C	0.138695	0.407525	0.708659
64	N	0.124913	0.364879	0.971079
65	H	0.129349	0.419773	0.771045
66	H	0.092491	0.369081	0.733887
67	C	0.028465	0.765832	0.025043
68	C	0.047877	0.801454	0.356644
69	C	0.08141	0.81886	0.342285
70	C	0.096769	0.799769	0.000991
71	C	0.081565	0.765415	0.00998
72	C	0.047511	0.749277	0.021991
73	H	0.037232	0.815705	0.361433
74	H	0.12177	0.812307	0.994486
75	H	0.036348	0.724188	0.024576
76	C	0.140328	0.73426	0.039583
77	C	0.109769	0.734627	0.041884
78	C	0.102192	0.750789	0.00653
79	N	0.1244	0.762923	0.305282
80	N	0.091211	0.723019	0.080072
81	H	0.097447	0.713027	0.104261
82	H	0.071119	0.724027	0.084536
83	C	0.10192	0.853924	0.004533
84	C	0.107835	0.876898	0.039651
85	C	0.138694	0.907525	0.041992
86	N	0.124914	0.864881	0.304412
87	H	0.129349	0.919773	0.104378
88	H	0.092491	0.86908	0.067222
89	C	0.028465	0.765832	0.358375
90	C	0.047877	0.801454	0.689977
91	C	0.08141	0.81886	0.675617
92	C	0.096769	0.799769	0.334324
93	C	0.081565	0.765415	0.343312
94	C	0.047511	0.749277	0.355323
95	H	0.037232	0.815705	0.694766
96	H	0.12177	0.812307	0.327818
97	H	0.036348	0.724188	0.357908
98	C	0.140328	0.73426	0.372917
99	C	0.109769	0.734627	0.375218
100	C	0.102192	0.750789	0.339865
101	N	0.1244	0.762923	0.638615
102	N	0.091211	0.723019	0.413407
103	H	0.097447	0.713027	0.437594
104	H	0.071119	0.724027	0.417868
105	C	0.10192	0.853924	0.337868
106	C	0.107835	0.876898	0.372984
107	C	0.138694	0.907525	0.375326
108	N	0.124914	0.864881	0.637746
109	H	0.129349	0.919773	0.437709
110	H	0.092491	0.86908	0.400555
111	C	0.028465	0.765832	0.691707
112	C	0.047877	0.801454	0.023312
113	C	0.08141	0.81886	0.008951
114	C	0.096769	0.799769	0.667655
115	C	0.081565	0.765415	0.676645
116	C	0.047511	0.749277	0.688656
117	H	0.037232	0.815705	0.0281
118	H	0.12177	0.812307	0.66115
119	H	0.036348	0.724188	0.691241
120	C	0.140328	0.73426	0.706249
121	C	0.109769	0.734627	0.708551
122	C	0.102192	0.750789	0.673198
123	N	0.1244	0.762923	0.971948
124	N	0.091211	0.723019	0.746739
125	H	0.097447	0.713027	0.770927
126	H	0.071119	0.724027	0.7512
127	C	0.10192	0.853924	0.6712
128	C	0.107835	0.876898	0.706317
129	C	0.138694	0.907525	0.708659
130	N	0.124914	0.864881	0.971079
131	H	0.129349	0.919773	0.771045
132	H	0.092491	0.86908	0.733887
133	C	0.252807	0.212255	0.0221
134	H	0.227721	0.198334	0.024705
135	C	0.251489	0.266053	0.025071
136	C	0.215864	0.249834	0.356651
137	C	0.198448	0.265966	0.342356
138	C	0.217533	0.300439	0.001231
139	C	0.251888	0.319572	0.010183
140	H	0.201615	0.224932	0.361369
141	H	0.204964	0.312876	0.994736
142	C	0.253251	0.04441	0.356614
143	H	0.228364	0.033762	0.361504
144	C	0.251259	0.488938	0.025122
145	C	0.25133	0.435935	0.342724
146	C	0.21686	0.42052	0.001633
147	C	0.197732	0.435789	0.010302
148	C	0.215657	0.46989	0.022052
149	H	0.204399	0.395505	0.995189
150	H	0.201742	0.481066	0.024604
151	C	0.163377	0.25134	0.004536
152	N	0.15251	0.263437	0.304367
153	H	0.148198	0.226836	0.067199
154	N	0.254407	0.364958	0.305602
155	N	0.253914	0.392562	0.304706
156	C	0.162499	0.415249	0.006669
157	N	0.152471	0.393021	0.305435
158	N	0.145596	0.426052	0.080204
159	H	0.166628	0.446237	0.084607
160	C	0.25471	0.098363	0.004617
161	C	0.237729	0.104428	0.039707
162	C	0.238137	0.135371	0.04202
163	C	0.254297	0.159089	0.006649
164	N	0.226582	0.142355	0.080234
165	H	0.216595	0.126135	0.104434
166	H	0.227633	0.163473	0.084711
167	H	0.230319	0.089152	0.067341
168	C	0.252807	0.212255	0.355435
169	H	0.227721	0.198334	0.358037
170	C	0.251489	0.266053	0.358405
171	C	0.215864	0.249834	0.689984
172	C	0.198448	0.265966	0.675688
173	C	0.217533	0.300439	0.334564
174	C	0.251888	0.319572	0.343515
175	H	0.201615	0.224932	0.694702
176	H	0.204964	0.312876	0.328071
177	C	0.253251	0.04441	0.689947
178	H	0.228364	0.033762	0.69484
179	C	0.251259	0.488938	0.358456
180	C	0.25133	0.435935	0.67606
181	C	0.21686	0.42052	0.334966
182	C	0.197732	0.435789	0.343633
183	C	0.215657	0.46989	0.355384
184	H	0.204399	0.395505	0.328523
185	H	0.201742	0.481066	0.357935
186	C	0.163377	0.25134	0.337871
187	N	0.15251	0.263437	0.637699
188	H	0.148198	0.226836	0.400531
189	N	0.254407	0.364958	0.638936
190	N	0.253914	0.392562	0.638041
191	C	0.162499	0.415249	0.340004
192	N	0.152471	0.393021	0.638767
193	N	0.145596	0.426052	0.413535
194	H	0.166628	0.446237	0.417939
195	C	0.25471	0.098363	0.337951
196	C	0.237729	0.104428	0.373039
197	C	0.238137	0.135371	0.375354
198	C	0.254297	0.159089	0.33998
199	N	0.226582	0.142355	0.413566
200	H	0.216595	0.126135	0.437767
201	H	0.227633	0.163473	0.418044
202	H	0.230319	0.089152	0.400673
203	C	0.252807	0.212255	0.688767
204	H	0.227721	0.198334	0.691373
205	C	0.251489	0.266053	0.691738
206	C	0.215864	0.249834	0.023317
207	C	0.198448	0.265966	0.009022
208	C	0.217533	0.300439	0.667899
209	C	0.251888	0.319572	0.676848
210	H	0.201615	0.224932	0.028037
211	H	0.204964	0.312876	0.661403
212	C	0.253251	0.04441	0.02328
213	H	0.228364	0.033762	0.028173
214	C	0.251259	0.488938	0.691788
215	C	0.25133	0.435935	0.009393
216	C	0.21686	0.42052	0.668297
217	C	0.197732	0.435789	0.676969
218	C	0.215657	0.46989	0.688716
219	H	0.204399	0.395505	0.661856
220	H	0.201742	0.481066	0.691268
221	C	0.163377	0.25134	0.671204
222	N	0.15251	0.263437	0.971035
223	H	0.148198	0.226836	0.733867
224	N	0.254407	0.364958	0.972269
225	N	0.253914	0.392562	0.971373
226	C	0.162499	0.415249	0.673336
227	N	0.152471	0.393021	0.9721
228	N	0.145596	0.426052	0.746871
229	H	0.166628	0.446237	0.751275
230	C	0.25471	0.098363	0.671285
231	C	0.237729	0.104428	0.706374
232	C	0.238137	0.135371	0.708686
233	C	0.254297	0.159089	0.673316
234	N	0.226582	0.142355	0.746898
235	H	0.216595	0.126135	0.771099
236	H	0.227633	0.163473	0.751376
237	H	0.230319	0.089152	0.734005
238	C	0.252807	0.712255	0.0221
239	H	0.22772	0.698334	0.024705
240	C	0.25149	0.766055	0.025071
241	C	0.215865	0.749836	0.356651
242	C	0.198447	0.765966	0.342356
243	C	0.217532	0.800439	0.001231
244	C	0.251888	0.819574	0.010183
245	H	0.201615	0.724933	0.361369
246	H	0.204964	0.812876	0.994736
247	C	0.253251	0.544411	0.356614
248	H	0.228363	0.533761	0.361504
249	C	0.251258	0.988938	0.025122
250	C	0.251329	0.935935	0.342724
251	C	0.21686	0.92052	0.001633
252	C	0.197731	0.935788	0.010302
253	C	0.215656	0.969889	0.022052
254	H	0.204398	0.895505	0.995189
255	H	0.20174	0.981065	0.024604
256	C	0.163378	0.751342	0.004536
257	N	0.152509	0.763437	0.304367
258	H	0.148199	0.726836	0.067199
259	N	0.254407	0.864958	0.305602
260	N	0.253913	0.892561	0.304706
261	C	0.162498	0.915248	0.006669
262	N	0.152471	0.893021	0.305435
263	N	0.145596	0.926052	0.080204
264	H	0.166628	0.946237	0.084607
265	C	0.25471	0.598364	0.004617
266	C	0.23773	0.60443	0.039707
267	C	0.238137	0.635372	0.04202
268	C	0.254297	0.659088	0.006649
269	N	0.226582	0.642356	0.080233
270	H	0.216595	0.626134	0.104434
271	H	0.227633	0.663474	0.084711
272	H	0.230318	0.589151	0.067341
273	C	0.252807	0.712255	0.355435
274	H	0.22772	0.698334	0.358037
275	C	0.25149	0.766055	0.358405
276	C	0.215865	0.749836	0.689984
277	C	0.198447	0.765966	0.675688
278	C	0.217532	0.800439	0.334564
279	C	0.251888	0.819574	0.343515
280	H	0.201615	0.724933	0.694702
281	H	0.204964	0.812876	0.328071
282	C	0.253251	0.544411	0.689947
283	H	0.228363	0.533761	0.69484
284	C	0.251258	0.988938	0.358456
285	C	0.251329	0.935935	0.67606
286	C	0.21686	0.92052	0.334966
287	C	0.197731	0.935788	0.343633
288	C	0.215656	0.969889	0.355384
289	H	0.204398	0.895505	0.328523
290	H	0.20174	0.981065	0.357935
291	C	0.163378	0.751342	0.337871
292	N	0.152509	0.763437	0.637699
293	H	0.148199	0.726836	0.400531
294	N	0.254407	0.864958	0.638936
295	N	0.253913	0.892561	0.638041
296	C	0.162498	0.915248	0.340004
297	N	0.152471	0.893021	0.638767
298	N	0.145596	0.926052	0.413535
299	H	0.166628	0.946237	0.417939
300	C	0.25471	0.598364	0.337951
301	C	0.23773	0.60443	0.373039
302	C	0.238137	0.635372	0.375354
303	C	0.254297	0.659088	0.33998
304	N	0.226582	0.642356	0.413566
305	H	0.216595	0.626134	0.437767
306	H	0.227633	0.663474	0.418044
307	H	0.230318	0.589151	0.400673
308	C	0.252807	0.712255	0.688767
309	H	0.22772	0.698334	0.691373
310	C	0.25149	0.766055	0.691738
311	C	0.215865	0.749836	0.023317
312	C	0.198447	0.765966	0.009022
313	C	0.217532	0.800439	0.667899
314	C	0.251888	0.819574	0.676848
315	H	0.201615	0.724933	0.028037
316	H	0.204964	0.812876	0.661403
317	C	0.253251	0.544411	0.02328
318	H	0.228363	0.533761	0.028173
319	C	0.251258	0.988938	0.691788
320	C	0.251329	0.935935	0.009393
321	C	0.21686	0.92052	0.668297
322	C	0.197731	0.935788	0.676969
323	C	0.215656	0.969889	0.688716
324	H	0.204398	0.895505	0.661856
325	H	0.20174	0.981065	0.691268
326	C	0.163378	0.751342	0.671204
327	N	0.152509	0.763437	0.971035
328	H	0.148199	0.726836	0.733867
329	N	0.254407	0.864958	0.972269
330	N	0.253913	0.892561	0.971373
331	C	0.162498	0.915248	0.673336
332	N	0.152471	0.893021	0.9721
333	N	0.145596	0.926052	0.746871
334	H	0.166628	0.946237	0.751275
335	C	0.25471	0.598364	0.671285
336	C	0.23773	0.60443	0.706374
337	C	0.238137	0.635372	0.708686
338	C	0.254297	0.659088	0.673316
339	N	0.226582	0.642356	0.746898
340	H	0.216595	0.626134	0.771099
341	H	0.227633	0.663474	0.751376
342	H	0.230318	0.589151	0.734005
343	C	0.269369	0.247856	0.025068
344	C	0.268937	0.194339	0.010065
345	C	0.303284	0.213473	0.001038
346	C	0.32239	0.247931	0.342285
347	C	0.304993	0.264067	0.356644
348	H	0.31925	0.288968	0.361383
349	H	0.315834	0.201021	0.99453
350	C	0.268041	0.30165	0.022063
351	H	0.293124	0.315566	0.024768
352	C	0.269473	0.025014	0.025087
353	C	0.305077	0.044067	0.022102
354	C	0.322996	0.078137	0.010165
355	C	0.303858	0.093367	0.001272
356	C	0.269398	0.077984	0.342467
357	H	0.318999	0.0329	0.024637
358	H	0.316324	0.118373	0.994783
359	C	0.267487	0.469542	0.356726
360	H	0.29238	0.480207	0.361568
361	C	0.266024	0.415574	0.004824
362	C	0.282891	0.409414	0.039967
363	C	0.282594	0.378522	0.0422
364	C	0.266548	0.354815	0.00677
365	N	0.294162	0.371533	0.080396
366	H	0.304103	0.387724	0.104638
367	H	0.293241	0.350464	0.084769
368	H	0.290391	0.424685	0.067616
369	N	0.266393	0.148986	0.305391
370	N	0.266844	0.12136	0.304479
371	C	0.269369	0.247856	0.358402
372	C	0.268937	0.194339	0.343397
373	C	0.303284	0.213473	0.334372
374	C	0.32239	0.247931	0.675617
375	C	0.304993	0.264067	0.689977
376	H	0.31925	0.288968	0.694715
377	H	0.315834	0.201021	0.327863
378	C	0.268041	0.30165	0.355394
379	H	0.293124	0.315566	0.358101
380	C	0.269473	0.025014	0.358419
381	C	0.305077	0.044067	0.355435
382	C	0.322996	0.078137	0.343498
383	C	0.303858	0.093367	0.334605
384	C	0.269398	0.077984	0.6758
385	H	0.318999	0.0329	0.357969
386	H	0.316324	0.118373	0.328117
387	C	0.267487	0.469542	0.690058
388	H	0.29238	0.480207	0.694901
389	C	0.266024	0.415574	0.338158
390	C	0.282891	0.409414	0.373299
391	C	0.282594	0.378522	0.375533
392	C	0.266548	0.354815	0.340105
393	N	0.294162	0.371533	0.413728
394	H	0.304103	0.387724	0.437969
395	H	0.293241	0.350464	0.418101
396	H	0.290391	0.424685	0.40095
397	N	0.266393	0.148986	0.638723
398	N	0.266844	0.12136	0.637811
399	C	0.269369	0.247856	0.691734
400	C	0.268937	0.194339	0.676729
401	C	0.303284	0.213473	0.667706
402	C	0.32239	0.247931	0.008952
403	C	0.304993	0.264067	0.023312
404	H	0.31925	0.288968	0.028049
405	H	0.315834	0.201021	0.661197
406	C	0.268041	0.30165	0.68873
407	H	0.293124	0.315566	0.691434
408	C	0.269473	0.025014	0.691751
409	C	0.305077	0.044067	0.688767
410	C	0.322996	0.078137	0.676831
411	C	0.303858	0.093367	0.667939
412	C	0.269398	0.077984	0.009133
413	H	0.318999	0.0329	0.691302
414	H	0.316324	0.118373	0.66145
415	C	0.267487	0.469542	0.023391
416	H	0.29238	0.480207	0.028235
417	C	0.266024	0.415574	0.671491
418	C	0.282891	0.409414	0.706635
419	C	0.282594	0.378522	0.708865
420	C	0.266548	0.354815	0.673438
421	N	0.294162	0.371533	0.747064
422	H	0.304103	0.387724	0.771305
423	H	0.293241	0.350464	0.751434
424	H	0.290391	0.424685	0.734283
425	N	0.266393	0.148986	0.972056
426	N	0.266844	0.12136	0.971147
427	C	0.26937	0.747858	0.025068
428	C	0.268936	0.694339	0.010065
429	C	0.303285	0.713474	0.001038
430	C	0.32239	0.747932	0.342285
431	C	0.304992	0.764067	0.356644
432	H	0.31925	0.788968	0.361383
433	H	0.315834	0.701022	0.99453
434	C	0.268042	0.801653	0.022063
435	H	0.293124	0.815566	0.024768
436	C	0.269472	0.525015	0.025087
437	C	0.305077	0.544068	0.022102
438	C	0.322995	0.578137	0.010165
439	C	0.303857	0.593368	0.001272
440	C	0.269398	0.577985	0.342467
441	H	0.319	0.5329	0.024637
442	H	0.316325	0.618373	0.994783
443	C	0.267487	0.969544	0.356726
444	H	0.29238	0.980207	0.361568
445	C	0.266023	0.915573	0.004824
446	C	0.282892	0.909416	0.039967
447	C	0.282595	0.878524	0.0422
448	C	0.266547	0.854815	0.00677
449	N	0.294162	0.871532	0.080396
450	H	0.304103	0.887724	0.104638
451	H	0.29324	0.850464	0.084769
452	H	0.290391	0.924684	0.067616
453	N	0.266394	0.648987	0.305391
454	N	0.266844	0.621361	0.304479
455	C	0.26937	0.747858	0.358402
456	C	0.268936	0.694339	0.343397
457	C	0.303285	0.713474	0.334372
458	C	0.32239	0.747932	0.675617
459	C	0.304992	0.764067	0.689977
460	H	0.31925	0.788968	0.694715
461	H	0.315834	0.701022	0.327863
462	C	0.268042	0.801653	0.355394
463	H	0.293124	0.815566	0.358101
464	C	0.269472	0.525015	0.358419
465	C	0.305077	0.544068	0.355435
466	C	0.322995	0.578137	0.343498
467	C	0.303857	0.593368	0.334605
468	C	0.269398	0.577985	0.6758
469	H	0.319	0.5329	0.357969
470	H	0.316325	0.618373	0.328117
471	C	0.267487	0.969544	0.690058
472	H	0.29238	0.980207	0.694901
473	C	0.266023	0.915573	0.338158
474	C	0.282892	0.909416	0.373299
475	C	0.282595	0.878524	0.375533
476	C	0.266547	0.854815	0.340105
477	N	0.294162	0.871532	0.413728
478	H	0.304103	0.887724	0.437969
479	H	0.29324	0.850464	0.418101
480	H	0.290391	0.924684	0.40095
481	N	0.266394	0.648987	0.638723
482	N	0.266844	0.621361	0.637811
483	C	0.26937	0.747858	0.691734
484	C	0.268936	0.694339	0.676729
485	C	0.303285	0.713474	0.667706
486	C	0.32239	0.747932	0.008952
487	C	0.304992	0.764067	0.023312
488	H	0.31925	0.788968	0.028049
489	H	0.315834	0.701022	0.661197
490	C	0.268042	0.801653	0.68873
491	H	0.293124	0.815566	0.691434
492	C	0.269472	0.525015	0.691751
493	C	0.305077	0.544068	0.688767
494	C	0.322995	0.578137	0.676831
495	C	0.303857	0.593368	0.667939
496	C	0.269398	0.577985	0.009133
497	H	0.319	0.5329	0.691302
498	H	0.316325	0.618373	0.66145
499	C	0.267487	0.969544	0.023391
500	H	0.29238	0.980207	0.028235
501	C	0.266023	0.915573	0.671491
502	C	0.282892	0.909416	0.706635
503	C	0.282595	0.878524	0.708865
504	C	0.266547	0.854815	0.673438
505	N	0.294162	0.871532	0.747064
506	H	0.304103	0.887724	0.771305
507	H	0.29324	0.850464	0.751434
508	H	0.290391	0.924684	0.734283
509	N	0.266394	0.648987	0.972056
510	N	0.266844	0.621361	0.971147
511	C	0.492388	0.247969	0.025033
512	C	0.473333	0.264516	0.022033
513	C	0.439271	0.248364	0.010059
514	C	0.424073	0.214014	0.001052
515	C	0.439442	0.194926	0.342312
516	C	0.472987	0.212347	0.356617
517	H	0.484488	0.289601	0.024695
518	H	0.483636	0.1981	0.361393
519	H	0.39907	0.201441	0.99457
520	C	0.357451	0.262481	0.004452
521	C	0.380481	0.279522	0.039529
522	C	0.411077	0.279212	0.04183
523	C	0.41856	0.262886	0.006588
524	N	0.396408	0.250859	0.305272
525	N	0.368339	0.250419	0.304277
526	N	0.429624	0.290844	0.080023
527	H	0.423425	0.300921	0.104143
528	H	0.449711	0.289832	0.084515
529	H	0.372723	0.287111	0.067099
530	C	0.419021	0.159853	0.004526
531	C	0.41291	0.13685	0.039684
532	C	0.381988	0.106291	0.042025
533	C	0.358244	0.098734	0.006689
534	N	0.368329	0.120916	0.305413
535	N	0.395985	0.148969	0.304435
536	N	0.375031	0.087738	0.08022
537	H	0.391274	0.093956	0.104388
538	H	0.353938	0.067636	0.084669
539	H	0.428236	0.144619	0.067275
540	C	0.492388	0.247969	0.358365
541	C	0.473333	0.264516	0.355367
542	C	0.439271	0.248364	0.343393
543	C	0.424073	0.214014	0.334387
544	C	0.439442	0.194926	0.675648
545	C	0.472987	0.212347	0.68995
546	H	0.484488	0.289601	0.358027
547	H	0.483636	0.1981	0.694725
548	H	0.39907	0.201441	0.327903
549	C	0.357451	0.262481	0.337785
550	C	0.380481	0.279522	0.372863
551	C	0.411077	0.279212	0.375164
552	C	0.41856	0.262886	0.339919
553	N	0.396408	0.250859	0.638605
554	N	0.368339	0.250419	0.637611
555	N	0.429624	0.290844	0.413356
556	H	0.423425	0.300921	0.437476
557	H	0.449711	0.289832	0.417848
558	H	0.372723	0.287111	0.400433
559	C	0.419021	0.159853	0.33786
560	C	0.41291	0.13685	0.373018
561	C	0.381988	0.106291	0.375357
562	C	0.358244	0.098734	0.340024
563	N	0.368329	0.120916	0.638747
564	N	0.395985	0.148969	0.637767
565	N	0.375031	0.087738	0.413552
566	H	0.391274	0.093956	0.437719
567	H	0.353938	0.067636	0.418003
568	H	0.428236	0.144619	0.400609
569	C	0.492388	0.247969	0.691697
570	C	0.473333	0.264516	0.6887
571	C	0.439271	0.248364	0.676726
572	C	0.424073	0.214014	0.667719
573	C	0.439442	0.194926	0.00898
574	C	0.472987	0.212347	0.023284
575	H	0.484488	0.289601	0.691363
576	H	0.483636	0.1981	0.028058
577	H	0.39907	0.201441	0.661238
578	C	0.357451	0.262481	0.671119
579	C	0.380481	0.279522	0.706195
580	C	0.411077	0.279212	0.708497
581	C	0.41856	0.262886	0.673252
582	N	0.396408	0.250859	0.971937
583	N	0.368339	0.250419	0.970944
584	N	0.429624	0.290844	0.746689
585	H	0.423425	0.300921	0.770808
586	H	0.449711	0.289832	0.75118
587	H	0.372723	0.287111	0.733766
588	C	0.419021	0.159853	0.671194
589	C	0.41291	0.13685	0.706351
590	C	0.381988	0.106291	0.708689
591	C	0.358244	0.098734	0.673357
592	N	0.368329	0.120916	0.972079
593	N	0.395985	0.148969	0.971103
594	N	0.375031	0.087738	0.746885
595	H	0.391274	0.093956	0.771055
596	H	0.353938	0.067636	0.751336
597	H	0.428236	0.144619	0.733941
598	C	0.492387	0.74797	0.025033
599	C	0.473332	0.764516	0.022033
600	C	0.43927	0.748364	0.010059
601	C	0.424074	0.714015	0.001052
602	C	0.439442	0.694927	0.342312
603	C	0.472986	0.712347	0.356617
604	H	0.484489	0.789603	0.024695
605	H	0.483637	0.698101	0.361393
606	H	0.399069	0.701442	0.99457
607	C	0.357452	0.762484	0.004452
608	C	0.380482	0.779524	0.039529
609	C	0.411077	0.779214	0.04183
610	C	0.418559	0.762886	0.006588
611	N	0.396408	0.750858	0.305272
612	N	0.368339	0.750419	0.304277
613	N	0.429625	0.790847	0.080023
614	H	0.423424	0.80092	0.104143
615	H	0.44971	0.789831	0.084515
616	H	0.372724	0.787111	0.067099
617	C	0.419022	0.659853	0.004526
618	C	0.412911	0.636851	0.039684
619	C	0.381988	0.606291	0.042025
620	C	0.358244	0.598734	0.006689
621	N	0.368329	0.620915	0.305413
622	N	0.395984	0.64897	0.304435
623	N	0.375032	0.587739	0.08022
624	H	0.391274	0.593956	0.104388
625	H	0.353937	0.567636	0.084669
626	H	0.428235	0.644619	0.067275
627	C	0.492387	0.74797	0.358365
628	C	0.473332	0.764516	0.355367
629	C	0.43927	0.748364	0.343393
630	C	0.424074	0.714015	0.334387
631	C	0.439442	0.694927	0.675648
632	C	0.472986	0.712347	0.68995
633	H	0.484489	0.789603	0.358027
634	H	0.483637	0.698101	0.694725
635	H	0.399069	0.701442	0.327903
636	C	0.357452	0.762484	0.337785
637	C	0.380482	0.779524	0.372863
638	C	0.411077	0.779214	0.375164
639	C	0.418559	0.762886	0.339919
640	N	0.396408	0.750858	0.638605
641	N	0.368339	0.750419	0.637611
642	N	0.429625	0.790847	0.413356
643	H	0.423424	0.80092	0.437476
644	H	0.44971	0.789831	0.417848
645	H	0.372724	0.787111	0.400433
646	C	0.419022	0.659853	0.33786
647	C	0.412911	0.636851	0.373018
648	C	0.381988	0.606291	0.375357
649	C	0.358244	0.598734	0.340024
650	N	0.368329	0.620915	0.638747
651	N	0.395984	0.64897	0.637767
652	N	0.375032	0.587739	0.413552
653	H	0.391274	0.593956	0.437719
654	H	0.353937	0.567636	0.418003
655	H	0.428235	0.644619	0.400609
656	C	0.492387	0.74797	0.691697
657	C	0.473332	0.764516	0.6887
658	C	0.43927	0.748364	0.676726
659	C	0.424074	0.714015	0.667719
660	C	0.439442	0.694927	0.00898
661	C	0.472986	0.712347	0.023284
662	H	0.484489	0.789603	0.691363
663	H	0.483637	0.698101	0.028058
664	H	0.399069	0.701442	0.661238
665	C	0.357452	0.762484	0.671119
666	C	0.380482	0.779524	0.706195
667	C	0.411077	0.779214	0.708497
668	C	0.418559	0.762886	0.673252
669	N	0.396408	0.750858	0.971937
670	N	0.368339	0.750419	0.970944
671	N	0.429625	0.790847	0.746689
672	H	0.423424	0.80092	0.770808
673	H	0.44971	0.789831	0.75118
674	H	0.372724	0.787111	0.733766
675	C	0.419022	0.659853	0.671194
676	C	0.412911	0.636851	0.706351
677	C	0.381988	0.606291	0.708689
678	C	0.358244	0.598734	0.673357
679	N	0.368329	0.620915	0.972079
680	N	0.395984	0.64897	0.971103
681	N	0.375032	0.587739	0.746885
682	H	0.391274	0.593956	0.771055
683	H	0.353937	0.567636	0.751336
684	H	0.428235	0.644619	0.733941
685	C	0.992387	0.247969	0.025033
686	C	0.973331	0.264516	0.022033
687	C	0.93927	0.248364	0.010059
688	C	0.924074	0.214014	0.001052
689	C	0.939441	0.194926	0.342312
690	C	0.972986	0.212347	0.356617
691	H	0.984487	0.289601	0.024695
692	H	0.983637	0.1981	0.361393
693	H	0.899069	0.201441	0.99457
694	C	0.528466	0.265832	0.025043
695	C	0.547877	0.301452	0.356644
696	C	0.581411	0.31886	0.342285
697	C	0.596768	0.299769	0.000991
698	C	0.581566	0.265415	0.00998
699	C	0.54751	0.249275	0.021991
700	H	0.537232	0.315703	0.361433
701	H	0.621769	0.312308	0.994486
702	H	0.536349	0.224187	0.024576
703	C	0.769368	0.247856	0.025068
704	C	0.752806	0.212255	0.0221
705	C	0.768937	0.194339	0.010065
706	C	0.803284	0.213473	0.001038
707	C	0.822389	0.247931	0.342285
708	C	0.804992	0.264067	0.356644
709	H	0.727719	0.198334	0.024705
710	H	0.81925	0.288968	0.361383
711	H	0.815833	0.201021	0.99453
712	C	0.751487	0.266053	0.025071
713	C	0.715864	0.249834	0.356651
714	C	0.698447	0.265966	0.342356
715	C	0.717532	0.300439	0.001231
716	C	0.751887	0.319572	0.010183
717	C	0.768042	0.30165	0.022063
718	H	0.701614	0.224932	0.361369
719	H	0.704963	0.312876	0.994736
720	H	0.793123	0.315566	0.024768
721	C	0.769472	0.025014	0.025087
722	C	0.805076	0.044067	0.022102
723	C	0.822995	0.078137	0.010165
724	C	0.803857	0.093367	0.001272
725	C	0.769397	0.077984	0.342467
726	C	0.75325	0.04441	0.356614
727	H	0.819001	0.0329	0.024637
728	H	0.728362	0.033762	0.361504
729	H	0.816325	0.118373	0.994783
730	C	0.751257	0.488938	0.025122
731	C	0.767485	0.469542	0.356726
732	C	0.751328	0.435935	0.342724
733	C	0.716859	0.42052	0.001633
734	C	0.697732	0.435789	0.010302
735	C	0.715657	0.46989	0.022052
736	H	0.792381	0.480207	0.361568
737	H	0.704399	0.395505	0.995189
738	H	0.701742	0.481066	0.024604
739	C	0.663377	0.25134	0.004536
740	C	0.640328	0.234259	0.039583
741	C	0.609769	0.234626	0.041884
742	C	0.602191	0.250789	0.00653
743	N	0.624399	0.262923	0.305282
744	N	0.65251	0.263437	0.304367
745	N	0.591209	0.223018	0.080072
746	H	0.597448	0.213026	0.104261
747	H	0.571118	0.224027	0.084536
748	H	0.648198	0.226836	0.067199
749	C	0.766022	0.415574	0.004824
750	C	0.782891	0.409414	0.039967
751	C	0.782594	0.378522	0.0422
752	C	0.766547	0.354815	0.00677
753	N	0.754406	0.364958	0.305602
754	N	0.753912	0.392562	0.304706
755	N	0.794162	0.371533	0.080396
756	H	0.804102	0.387724	0.104638
757	H	0.793239	0.350464	0.084769
758	H	0.790391	0.424685	0.067616
759	C	0.601922	0.353924	0.004533
760	C	0.607836	0.376898	0.039651
761	C	0.638695	0.407525	0.041992
762	C	0.662499	0.415249	0.006669
763	N	0.65247	0.393021	0.305435
764	N	0.624912	0.364879	0.304412
765	N	0.645595	0.426052	0.080204
766	H	0.629348	0.419773	0.104378
767	H	0.666627	0.446237	0.084607
768	H	0.59249	0.369081	0.067222
769	C	0.85745	0.262481	0.004452
770	C	0.88048	0.279522	0.039529
771	C	0.911076	0.279212	0.04183
772	C	0.918558	0.262886	0.006588
773	N	0.896407	0.250859	0.305272
774	N	0.868338	0.250419	0.304277
775	N	0.929623	0.290844	0.080023
776	H	0.923424	0.300921	0.104143
777	H	0.94971	0.289832	0.084515
778	H	0.872724	0.287111	0.067099
779	C	0.75471	0.098363	0.004617
780	C	0.737729	0.104428	0.039707
781	C	0.738136	0.135371	0.04202
782	C	0.754297	0.159089	0.006649
783	N	0.766394	0.148986	0.305391
784	N	0.766844	0.12136	0.304479
785	N	0.726582	0.142355	0.080234
786	H	0.716595	0.126135	0.104434
787	H	0.727632	0.163473	0.084711
788	H	0.730319	0.089152	0.067341
789	C	0.919022	0.159853	0.004526
790	C	0.912909	0.13685	0.039684
791	C	0.881987	0.106291	0.042025
792	C	0.858243	0.098734	0.006689
793	N	0.86833	0.120916	0.305413
794	N	0.895984	0.148969	0.304435
795	N	0.875032	0.087738	0.08022
796	H	0.891273	0.093956	0.104388
797	H	0.853937	0.067636	0.084669
798	H	0.928235	0.144619	0.067275
799	C	0.992387	0.247969	0.358365
800	C	0.973331	0.264516	0.355367
801	C	0.93927	0.248364	0.343393
802	C	0.924074	0.214014	0.334387
803	C	0.939441	0.194926	0.675648
804	C	0.972986	0.212347	0.68995
805	H	0.984487	0.289601	0.358027
806	H	0.983637	0.1981	0.694725
807	H	0.899069	0.201441	0.327903
808	C	0.528466	0.265832	0.358375
809	C	0.547877	0.301452	0.689977
810	C	0.581411	0.31886	0.675617
811	C	0.596768	0.299769	0.334323
812	C	0.581566	0.265415	0.343312
813	C	0.54751	0.249275	0.355323
814	H	0.537232	0.315703	0.694766
815	H	0.621769	0.312308	0.327818
816	H	0.536349	0.224187	0.357908
817	C	0.769368	0.247856	0.358402
818	C	0.752806	0.212255	0.355435
819	C	0.768937	0.194339	0.343397
820	C	0.803284	0.213473	0.334372
821	C	0.822389	0.247931	0.675617
822	C	0.804992	0.264067	0.689977
823	H	0.727719	0.198334	0.358037
824	H	0.81925	0.288968	0.694715
825	H	0.815833	0.201021	0.327863
826	C	0.751487	0.266053	0.358405
827	C	0.715864	0.249834	0.689984
828	C	0.698447	0.265966	0.675688
829	C	0.717532	0.300439	0.334564
830	C	0.751887	0.319572	0.343515
831	C	0.768042	0.30165	0.355394
832	H	0.701614	0.224932	0.694702
833	H	0.704963	0.312876	0.328071
834	H	0.793123	0.315566	0.358101
835	C	0.769472	0.025014	0.358419
836	C	0.805076	0.044067	0.355435
837	C	0.822995	0.078137	0.343498
838	C	0.803857	0.093367	0.334605
839	C	0.769397	0.077984	0.6758
840	C	0.75325	0.04441	0.689947
841	H	0.819001	0.0329	0.357969
842	H	0.728362	0.033762	0.69484
843	H	0.816325	0.118373	0.328117
844	C	0.751257	0.488938	0.358456
845	C	0.767485	0.469542	0.690058
846	C	0.751328	0.435935	0.67606
847	C	0.716859	0.42052	0.334966
848	C	0.697732	0.435789	0.343633
849	C	0.715657	0.46989	0.355384
850	H	0.792381	0.480207	0.694901
851	H	0.704399	0.395505	0.328523
852	H	0.701742	0.481066	0.357935
853	C	0.663377	0.25134	0.337871
854	C	0.640328	0.234259	0.372917
855	C	0.609769	0.234626	0.375218
856	C	0.602191	0.250789	0.339865
857	N	0.624399	0.262923	0.638615
858	N	0.65251	0.263437	0.637699
859	N	0.591209	0.223018	0.413407
860	H	0.597448	0.213026	0.437594
861	H	0.571118	0.224027	0.417868
862	H	0.648198	0.226836	0.400531
863	C	0.766022	0.415574	0.338158
864	C	0.782891	0.409414	0.373299
865	C	0.782594	0.378522	0.375533
866	C	0.766547	0.354815	0.340105
867	N	0.754406	0.364958	0.638936
868	N	0.753912	0.392562	0.638041
869	N	0.794162	0.371533	0.413728
870	H	0.804102	0.387724	0.437969
871	H	0.793239	0.350464	0.418101
872	H	0.790391	0.424685	0.40095
873	C	0.601922	0.353924	0.337868
874	C	0.607836	0.376898	0.372984
875	C	0.638695	0.407525	0.375326
876	C	0.662499	0.415249	0.340004
877	N	0.65247	0.393021	0.638767
878	N	0.624912	0.364879	0.637746
879	N	0.645595	0.426052	0.413535
880	H	0.629348	0.419773	0.437709
881	H	0.666627	0.446237	0.417939
882	H	0.59249	0.369081	0.400555
883	C	0.85745	0.262481	0.337785
884	C	0.88048	0.279522	0.372863
885	C	0.911076	0.279212	0.375164
886	C	0.918558	0.262886	0.339919
887	N	0.896407	0.250859	0.638605
888	N	0.868338	0.250419	0.637611
889	N	0.929623	0.290844	0.413356
890	H	0.923424	0.300921	0.437476
891	H	0.94971	0.289832	0.417848
892	H	0.872724	0.287111	0.400433
893	C	0.75471	0.098363	0.337951
894	C	0.737729	0.104428	0.373039
895	C	0.738136	0.135371	0.375354
896	C	0.754297	0.159089	0.33998
897	N	0.766394	0.148986	0.638723
898	N	0.766844	0.12136	0.637811
899	N	0.726582	0.142355	0.413566
900	H	0.716595	0.126135	0.437767
901	H	0.727632	0.163473	0.418044
902	H	0.730319	0.089152	0.400673
903	C	0.919022	0.159853	0.33786
904	C	0.912909	0.13685	0.373018
905	C	0.881987	0.106291	0.375357
906	C	0.858243	0.098734	0.340024
907	N	0.86833	0.120916	0.638747
908	N	0.895984	0.148969	0.637767
909	N	0.875032	0.087738	0.413552
910	H	0.891273	0.093956	0.437719
911	H	0.853937	0.067636	0.418003
912	H	0.928235	0.144619	0.400609
913	C	0.992387	0.247969	0.691697
914	C	0.973331	0.264516	0.6887
915	C	0.93927	0.248364	0.676726
916	C	0.924074	0.214014	0.667719
917	C	0.939441	0.194926	0.00898
918	C	0.972986	0.212347	0.023284
919	H	0.984487	0.289601	0.691363
920	H	0.983637	0.1981	0.028058
921	H	0.899069	0.201441	0.661238
922	C	0.528466	0.265832	0.691707
923	C	0.547877	0.301452	0.023312
924	C	0.581411	0.31886	0.008951
925	C	0.596768	0.299769	0.667655
926	C	0.581566	0.265415	0.676645
927	C	0.54751	0.249275	0.688656
928	H	0.537232	0.315703	0.0281
929	H	0.621769	0.312308	0.66115
930	H	0.536349	0.224187	0.691241
931	C	0.769368	0.247856	0.691734
932	C	0.752806	0.212255	0.688767
933	C	0.768937	0.194339	0.676729
934	C	0.803284	0.213473	0.667706
935	C	0.822389	0.247931	0.008952
936	C	0.804992	0.264067	0.023312
937	H	0.727719	0.198334	0.691373
938	H	0.81925	0.288968	0.028049
939	H	0.815833	0.201021	0.661197
940	C	0.751487	0.266053	0.691738
941	C	0.715864	0.249834	0.023317
942	C	0.698447	0.265966	0.009022
943	C	0.717532	0.300439	0.667899
944	C	0.751887	0.319572	0.676848
945	C	0.768042	0.30165	0.68873
946	H	0.701614	0.224932	0.028037
947	H	0.704963	0.312876	0.661403
948	H	0.793123	0.315566	0.691434
949	C	0.769472	0.025014	0.691751
950	C	0.805076	0.044067	0.688767
951	C	0.822995	0.078137	0.676831
952	C	0.803857	0.093367	0.667939
953	C	0.769397	0.077984	0.009133
954	C	0.75325	0.04441	0.02328
955	H	0.819001	0.0329	0.691302
956	H	0.728362	0.033762	0.028173
957	H	0.816325	0.118373	0.66145
958	C	0.751257	0.488938	0.691788
959	C	0.767485	0.469542	0.023391
960	C	0.751328	0.435935	0.009393
961	C	0.716859	0.42052	0.668297
962	C	0.697732	0.435789	0.676969
963	C	0.715657	0.46989	0.688716
964	H	0.792381	0.480207	0.028235
965	H	0.704399	0.395505	0.661856
966	H	0.701742	0.481066	0.691268
967	C	0.663377	0.25134	0.671204
968	C	0.640328	0.234259	0.706249
969	C	0.609769	0.234626	0.708551
970	C	0.602191	0.250789	0.673198
971	N	0.624399	0.262923	0.971948
972	N	0.65251	0.263437	0.971035
973	N	0.591209	0.223018	0.746739
974	H	0.597448	0.213026	0.770927
975	H	0.571118	0.224027	0.7512
976	H	0.648198	0.226836	0.733867
977	C	0.766022	0.415574	0.671491
978	C	0.782891	0.409414	0.706635
979	C	0.782594	0.378522	0.708865
980	C	0.766547	0.354815	0.673438
981	N	0.754406	0.364958	0.972269
982	N	0.753912	0.392562	0.971373
983	N	0.794162	0.371533	0.747064
984	H	0.804102	0.387724	0.771305
985	H	0.793239	0.350464	0.751434
986	H	0.790391	0.424685	0.734283
987	C	0.601922	0.353924	0.6712
988	C	0.607836	0.376898	0.706317
989	C	0.638695	0.407525	0.708659
990	C	0.662499	0.415249	0.673336
991	N	0.65247	0.393021	0.9721
992	N	0.624912	0.364879	0.971079
993	N	0.645595	0.426052	0.746871
994	H	0.629348	0.419773	0.771045
995	H	0.666627	0.446237	0.751275
996	H	0.59249	0.369081	0.733887
997	C	0.85745	0.262481	0.671119
998	C	0.88048	0.279522	0.706195
999	C	0.911076	0.279212	0.708497
1000	C	0.918558	0.262886	0.673252
1001	N	0.896407	0.250859	0.971937
1002	N	0.868338	0.250419	0.970944
1003	N	0.929623	0.290844	0.746689
1004	H	0.923424	0.300921	0.770808
1005	H	0.94971	0.289832	0.75118
1006	H	0.872724	0.287111	0.733766
1007	C	0.75471	0.098363	0.671285
1008	C	0.737729	0.104428	0.706374
1009	C	0.738136	0.135371	0.708686
1010	C	0.754297	0.159089	0.673316
1011	N	0.766394	0.148986	0.972056
1012	N	0.766844	0.12136	0.971147
1013	N	0.726582	0.142355	0.746898
1014	H	0.716595	0.126135	0.771099
1015	H	0.727632	0.163473	0.751376
1016	H	0.730319	0.089152	0.734005
1017	C	0.919022	0.159853	0.671194
1018	C	0.912909	0.13685	0.706351
1019	C	0.881987	0.106291	0.708689
1020	C	0.858243	0.098734	0.673357
1021	N	0.86833	0.120916	0.972079
1022	N	0.895984	0.148969	0.971103
1023	N	0.875032	0.087738	0.746885
1024	H	0.891273	0.093956	0.771055
1025	H	0.853937	0.067636	0.751336
1026	H	0.928235	0.144619	0.733941
1027	C	0.992387	0.74797	0.025033
1028	C	0.973331	0.764516	0.022033
1029	C	0.93927	0.748364	0.010059
1030	C	0.924072	0.714015	0.001052
1031	C	0.939442	0.694927	0.342312
1032	C	0.972986	0.712347	0.356617
1033	H	0.984488	0.789603	0.024695
1034	H	0.983636	0.698101	0.361393
1035	H	0.899069	0.701442	0.99457
1036	C	0.528465	0.765832	0.025043
1037	C	0.547878	0.801454	0.356644
1038	C	0.58141	0.81886	0.342285
1039	C	0.596769	0.799769	0.000991
1040	C	0.581565	0.765415	0.00998
1041	C	0.547511	0.749277	0.021991
1042	H	0.537232	0.815705	0.361433
1043	H	0.621769	0.812307	0.994486
1044	H	0.536348	0.724188	0.024576
1045	C	0.769369	0.747858	0.025068
1046	C	0.752806	0.712255	0.0221
1047	C	0.768937	0.694339	0.010065
1048	C	0.803285	0.713474	0.001038
1049	C	0.82239	0.747932	0.342285
1050	C	0.804992	0.764067	0.356644
1051	H	0.72772	0.698334	0.024705
1052	H	0.81925	0.788968	0.361383
1053	H	0.815834	0.701022	0.99453
1054	C	0.751489	0.766055	0.025071
1055	C	0.715865	0.749836	0.356651
1056	C	0.698447	0.765966	0.342356
1057	C	0.717532	0.800439	0.001231
1058	C	0.751888	0.819574	0.010183
1059	C	0.768041	0.801653	0.022063
1060	H	0.701614	0.724933	0.361369
1061	H	0.704963	0.812876	0.994736
1062	H	0.793123	0.815566	0.024768
1063	C	0.769472	0.525015	0.025087
1064	C	0.805077	0.544068	0.022102
1065	C	0.822995	0.578137	0.010165
1066	C	0.803857	0.593368	0.001272
1067	C	0.769397	0.577985	0.342467
1068	C	0.753251	0.544411	0.356614
1069	H	0.818998	0.5329	0.024637
1070	H	0.728362	0.533761	0.361504
1071	H	0.816325	0.618373	0.994783
1072	C	0.751257	0.988938	0.025122
1073	C	0.767486	0.969544	0.356726
1074	C	0.751328	0.935935	0.342724
1075	C	0.716859	0.92052	0.001633
1076	C	0.697732	0.935788	0.010302
1077	C	0.715657	0.969889	0.022052
1078	H	0.792379	0.980207	0.361568
1079	H	0.704399	0.895505	0.995189
1080	H	0.701741	0.981065	0.024604
1081	C	0.663378	0.751342	0.004536
1082	C	0.640329	0.73426	0.039583
1083	C	0.609768	0.734627	0.041884
1084	C	0.602191	0.750789	0.00653
1085	N	0.624399	0.762923	0.305282
1086	N	0.65251	0.763437	0.304367
1087	N	0.59121	0.723019	0.080072
1088	H	0.597448	0.713027	0.104261
1089	H	0.571118	0.724027	0.084536
1090	H	0.648198	0.726836	0.067199
1091	C	0.766022	0.915573	0.004824
1092	C	0.782892	0.909416	0.039967
1093	C	0.782595	0.878524	0.0422
1094	C	0.766547	0.854815	0.00677
1095	N	0.754406	0.864958	0.305602
1096	N	0.753912	0.892561	0.304706
1097	N	0.794162	0.871532	0.080396
1098	H	0.804102	0.887724	0.104638
1099	H	0.793239	0.850464	0.084769
1100	H	0.790391	0.924684	0.067616
1101	C	0.601921	0.853924	0.004533
1102	C	0.607834	0.876898	0.039651
1103	C	0.638695	0.907525	0.041992
1104	C	0.662498	0.915248	0.006669
1105	N	0.65247	0.893021	0.305435
1106	N	0.624913	0.864881	0.304412
1107	N	0.645595	0.926052	0.080204
1108	H	0.629348	0.919773	0.104378
1109	H	0.666627	0.946237	0.084607
1110	H	0.592491	0.86908	0.067222
1111	C	0.857451	0.762484	0.004452
1112	C	0.880481	0.779524	0.039529
1113	C	0.911077	0.779214	0.04183
1114	C	0.918558	0.762886	0.006588
1115	N	0.896407	0.750858	0.305272
1116	N	0.868338	0.750419	0.304277
1117	N	0.929624	0.790847	0.080023
1118	H	0.923424	0.80092	0.104143
1119	H	0.94971	0.789831	0.084515
1120	H	0.872724	0.787111	0.067099
1121	C	0.75471	0.598364	0.004617
1122	C	0.73773	0.60443	0.039707
1123	C	0.738136	0.635372	0.04202
1124	C	0.754297	0.659088	0.006649
1125	N	0.766392	0.648987	0.305391
1126	N	0.766845	0.621361	0.304479
1127	N	0.726582	0.642356	0.080233
1128	H	0.716593	0.626134	0.104434
1129	H	0.727633	0.663474	0.084711
1130	H	0.730317	0.589151	0.067341
1131	C	0.919022	0.659853	0.004526
1132	C	0.91291	0.636851	0.039684
1133	C	0.881987	0.606291	0.042025
1134	C	0.858243	0.598734	0.006689
1135	N	0.868329	0.620915	0.305413
1136	N	0.895984	0.64897	0.304435
1137	N	0.875032	0.587739	0.08022
1138	H	0.891274	0.593956	0.104388
1139	H	0.853937	0.567636	0.084669
1140	H	0.928235	0.644619	0.067275
1141	C	0.992387	0.74797	0.358365
1142	C	0.973331	0.764516	0.355367
1143	C	0.93927	0.748364	0.343393
1144	C	0.924072	0.714015	0.334387
1145	C	0.939442	0.694927	0.675648
1146	C	0.972986	0.712347	0.68995
1147	H	0.984488	0.789603	0.358027
1148	H	0.983636	0.698101	0.694725
1149	H	0.899069	0.701442	0.327903
1150	C	0.528465	0.765832	0.358375
1151	C	0.547878	0.801454	0.689977
1152	C	0.58141	0.81886	0.675617
1153	C	0.596769	0.799769	0.334324
1154	C	0.581565	0.765415	0.343312
1155	C	0.547511	0.749277	0.355323
1156	H	0.537232	0.815705	0.694766
1157	H	0.621769	0.812307	0.327818
1158	H	0.536348	0.724188	0.357908
1159	C	0.769369	0.747858	0.358402
1160	C	0.752806	0.712255	0.355435
1161	C	0.768937	0.694339	0.343397
1162	C	0.803285	0.713474	0.334372
1163	C	0.82239	0.747932	0.675617
1164	C	0.804992	0.764067	0.689977
1165	H	0.72772	0.698334	0.358037
1166	H	0.81925	0.788968	0.694715
1167	H	0.815834	0.701022	0.327863
1168	C	0.751489	0.766055	0.358405
1169	C	0.715865	0.749836	0.689984
1170	C	0.698447	0.765966	0.675688
1171	C	0.717532	0.800439	0.334564
1172	C	0.751888	0.819574	0.343515
1173	C	0.768041	0.801653	0.355394
1174	H	0.701614	0.724933	0.694702
1175	H	0.704963	0.812876	0.328071
1176	H	0.793123	0.815566	0.358101
1177	C	0.769472	0.525015	0.358419
1178	C	0.805077	0.544068	0.355435
1179	C	0.822995	0.578137	0.343498
1180	C	0.803857	0.593368	0.334605
1181	C	0.769397	0.577985	0.6758
1182	C	0.753251	0.544411	0.689947
1183	H	0.818998	0.5329	0.357969
1184	H	0.728362	0.533761	0.69484
1185	H	0.816325	0.618373	0.328117
1186	C	0.751257	0.988938	0.358456
1187	C	0.767486	0.969544	0.690058
1188	C	0.751328	0.935935	0.67606
1189	C	0.716859	0.92052	0.334966
1190	C	0.697732	0.935788	0.343633
1191	C	0.715657	0.969889	0.355384
1192	H	0.792379	0.980207	0.694901
1193	H	0.704399	0.895505	0.328523
1194	H	0.701741	0.981065	0.357935
1195	C	0.663378	0.751342	0.337871
1196	C	0.640329	0.73426	0.372917
1197	C	0.609768	0.734627	0.375218
1198	C	0.602191	0.750789	0.339865
1199	N	0.624399	0.762923	0.638615
1200	N	0.65251	0.763437	0.637699
1201	N	0.59121	0.723019	0.413407
1202	H	0.597448	0.713027	0.437594
1203	H	0.571118	0.724027	0.417868
1204	H	0.648198	0.726836	0.400531
1205	C	0.766022	0.915573	0.338158
1206	C	0.782892	0.909416	0.373299
1207	C	0.782595	0.878524	0.375533
1208	C	0.766547	0.854815	0.340105
1209	N	0.754406	0.864958	0.638936
1210	N	0.753912	0.892561	0.638041
1211	N	0.794162	0.871532	0.413728
1212	H	0.804102	0.887724	0.437969
1213	H	0.793239	0.850464	0.418101
1214	H	0.790391	0.924684	0.40095
1215	C	0.601921	0.853924	0.337868
1216	C	0.607834	0.876898	0.372984
1217	C	0.638695	0.907525	0.375326
1218	C	0.662498	0.915248	0.340004
1219	N	0.65247	0.893021	0.638767
1220	N	0.624913	0.864881	0.637746
1221	N	0.645595	0.926052	0.413535
1222	H	0.629348	0.919773	0.437709
1223	H	0.666627	0.946237	0.417939
1224	H	0.592491	0.86908	0.400555
1225	C	0.857451	0.762484	0.337785
1226	C	0.880481	0.779524	0.372863
1227	C	0.911077	0.779214	0.375164
1228	C	0.918558	0.762886	0.339919
1229	N	0.896407	0.750858	0.638605
1230	N	0.868338	0.750419	0.637611
1231	N	0.929624	0.790847	0.413356
1232	H	0.923424	0.80092	0.437476
1233	H	0.94971	0.789831	0.417848
1234	H	0.872724	0.787111	0.400433
1235	C	0.75471	0.598364	0.337951
1236	C	0.73773	0.60443	0.373039
1237	C	0.738136	0.635372	0.375354
1238	C	0.754297	0.659088	0.33998
1239	N	0.766392	0.648987	0.638723
1240	N	0.766845	0.621361	0.637811
1241	N	0.726582	0.642356	0.413566
1242	H	0.716593	0.626134	0.437767
1243	H	0.727633	0.663474	0.418044
1244	H	0.730317	0.589151	0.400673
1245	C	0.919022	0.659853	0.33786
1246	C	0.91291	0.636851	0.373018
1247	C	0.881987	0.606291	0.375357
1248	C	0.858243	0.598734	0.340024
1249	N	0.868329	0.620915	0.638747
1250	N	0.895984	0.64897	0.637767
1251	N	0.875032	0.587739	0.413552
1252	H	0.891274	0.593956	0.437719
1253	H	0.853937	0.567636	0.418003
1254	H	0.928235	0.644619	0.400609
1255	C	0.992387	0.74797	0.691697
1256	C	0.973331	0.764516	0.6887
1257	C	0.93927	0.748364	0.676726
1258	C	0.924072	0.714015	0.667719
1259	C	0.939442	0.694927	0.00898
1260	C	0.972986	0.712347	0.023284
1261	H	0.984488	0.789603	0.691363
1262	H	0.983636	0.698101	0.028058
1263	H	0.899069	0.701442	0.661238
1264	C	0.528465	0.765832	0.691707
1265	C	0.547878	0.801454	0.023312
1266	C	0.58141	0.81886	0.008951
1267	C	0.596769	0.799769	0.667655
1268	C	0.581565	0.765415	0.676645
1269	C	0.547511	0.749277	0.688656
1270	H	0.537232	0.815705	0.0281
1271	H	0.621769	0.812307	0.66115
1272	H	0.536348	0.724188	0.691241
1273	C	0.769369	0.747858	0.691734
1274	C	0.752806	0.712255	0.688767
1275	C	0.768937	0.694339	0.676729
1276	C	0.803285	0.713474	0.667706
1277	C	0.82239	0.747932	0.008952
1278	C	0.804992	0.764067	0.023312
1279	H	0.72772	0.698334	0.691373
1280	H	0.81925	0.788968	0.028049
1281	H	0.815834	0.701022	0.661197
1282	C	0.751489	0.766055	0.691738
1283	C	0.715865	0.749836	0.023317
1284	C	0.698447	0.765966	0.009022
1285	C	0.717532	0.800439	0.667899
1286	C	0.751888	0.819574	0.676848
1287	C	0.768041	0.801653	0.68873
1288	H	0.701614	0.724933	0.028037
1289	H	0.704963	0.812876	0.661403
1290	H	0.793123	0.815566	0.691434
1291	C	0.769472	0.525015	0.691751
1292	C	0.805077	0.544068	0.688767
1293	C	0.822995	0.578137	0.676831
1294	C	0.803857	0.593368	0.667939
1295	C	0.769397	0.577985	0.009133
1296	C	0.753251	0.544411	0.02328
1297	H	0.818998	0.5329	0.691302
1298	H	0.728362	0.533761	0.028173
1299	H	0.816325	0.618373	0.66145
1300	C	0.751257	0.988938	0.691788
1301	C	0.767486	0.969544	0.023391
1302	C	0.751328	0.935935	0.009393
1303	C	0.716859	0.92052	0.668297
1304	C	0.697732	0.935788	0.676969
1305	C	0.715657	0.969889	0.688716
1306	H	0.792379	0.980207	0.028235
1307	H	0.704399	0.895505	0.661856
1308	H	0.701741	0.981065	0.691268
1309	C	0.663378	0.751342	0.671204
1310	C	0.640329	0.73426	0.706249
1311	C	0.609768	0.734627	0.708551
1312	C	0.602191	0.750789	0.673198
1313	N	0.624399	0.762923	0.971948
1314	N	0.65251	0.763437	0.971035
1315	N	0.59121	0.723019	0.746739
1316	H	0.597448	0.713027	0.770927
1317	H	0.571118	0.724027	0.7512
1318	H	0.648198	0.726836	0.733867
1319	C	0.766022	0.915573	0.671491
1320	C	0.782892	0.909416	0.706635
1321	C	0.782595	0.878524	0.708865
1322	C	0.766547	0.854815	0.673438
1323	N	0.754406	0.864958	0.972269
1324	N	0.753912	0.892561	0.971373
1325	N	0.794162	0.871532	0.747064
1326	H	0.804102	0.887724	0.771305
1327	H	0.793239	0.850464	0.751434
1328	H	0.790391	0.924684	0.734283
1329	C	0.601921	0.853924	0.6712
1330	C	0.607834	0.876898	0.706317
1331	C	0.638695	0.907525	0.708659
1332	C	0.662498	0.915248	0.673336
1333	N	0.65247	0.893021	0.9721
1334	N	0.624913	0.864881	0.971079
1335	N	0.645595	0.926052	0.746871
1336	H	0.629348	0.919773	0.771045
1337	H	0.666627	0.946237	0.751275
1338	H	0.592491	0.86908	0.733887
1339	C	0.857451	0.762484	0.671119
1340	C	0.880481	0.779524	0.706195
1341	C	0.911077	0.779214	0.708497
1342	C	0.918558	0.762886	0.673252
1343	N	0.896407	0.750858	0.971937
1344	N	0.868338	0.750419	0.970944
1345	N	0.929624	0.790847	0.746689
1346	H	0.923424	0.80092	0.770808
1347	H	0.94971	0.789831	0.75118
1348	H	0.872724	0.787111	0.733766
1349	C	0.75471	0.598364	0.671285
1350	C	0.73773	0.60443	0.706374
1351	C	0.738136	0.635372	0.708686
1352	C	0.754297	0.659088	0.673316
1353	N	0.766392	0.648987	0.972056
1354	N	0.766845	0.621361	0.971147
1355	N	0.726582	0.642356	0.746898
1356	H	0.716593	0.626134	0.771099
1357	H	0.727633	0.663474	0.751376
1358	H	0.730317	0.589151	0.734005
1359	C	0.919022	0.659853	0.671194
1360	C	0.91291	0.636851	0.706351
1361	C	0.881987	0.606291	0.708689
1362	C	0.858243	0.598734	0.673357
1363	N	0.868329	0.620915	0.972079
1364	N	0.895984	0.64897	0.971103
1365	N	0.875032	0.587739	0.746885
1366	H	0.891274	0.593956	0.771055
1367	H	0.853937	0.567636	0.751336
1368	H	0.928235	0.644619	0.733941
