data_C576H396N36_2018-02-15_10:38:51
#******************************************
#
# CIF file created by Zeo++
# Zeo++ is an open source package to
# analyze microporous materials
#
#*******************************************

_cell_length_a		44.5275   
_cell_length_b		44.5275   
_cell_length_c		29.7124   
_cell_angle_alpha		90   
_cell_angle_beta		90   
_cell_angle_gamma		120   

_symmetry_space_group_name_H-M		'P1'
_symmetry_Int_Tables_number		1
_symmetry_cell_setting		Monoclinic

loop_
_symmetry_equiv_pos_as_xyz
'+x,+y,+z'

loop_
_atom_site_label
_atom_site_type_symbol
_atom_site_fract_x
_atom_site_fract_y
_atom_site_fract_z
1	C	0.025394	0.264051	0.00867
2	C	0.044307	0.254551	0.037829
3	C	0.080832	0.272603	0.03703
4	C	0.09965	0.300815	0.00729
5	C	0.080424	0.310036	0.311377
6	C	0.043895	0.291853	0.311839
7	H	0.031593	0.234511	0.060075
8	H	0.093619	0.265358	0.05924
9	H	0.092904	0.329929	0.288891
10	H	0.030888	0.299352	0.290339
11	H	0.010318	0.286148	0.083393
12	C	0.025394	0.264051	0.342002
13	C	0.044307	0.254551	0.371162
14	C	0.080832	0.272603	0.370364
15	C	0.09965	0.300815	0.340622
16	C	0.080424	0.310036	0.644708
17	C	0.043895	0.291853	0.645172
18	H	0.031593	0.234511	0.393409
19	H	0.093619	0.265358	0.392574
20	H	0.092904	0.329929	0.622222
21	H	0.030888	0.299352	0.623673
22	H	0.010318	0.286148	0.416725
23	C	0.025394	0.264051	0.675335
24	C	0.044307	0.254551	0.704495
25	C	0.080832	0.272603	0.703697
26	C	0.09965	0.300815	0.673955
27	C	0.080424	0.310036	0.978044
28	C	0.043895	0.291853	0.978505
29	H	0.031593	0.234511	0.726741
30	H	0.093619	0.265358	0.725907
31	H	0.092904	0.329929	0.955558
32	H	0.030888	0.299352	0.957006
33	H	0.010318	0.286148	0.750058
34	C	0.025392	0.764049	0.00867
35	C	0.044307	0.75455	0.037829
36	C	0.080832	0.772604	0.03703
37	C	0.099651	0.800816	0.00729
38	C	0.080423	0.810037	0.311377
39	C	0.043894	0.791854	0.311839
40	H	0.031593	0.734512	0.060075
41	H	0.093619	0.765359	0.05924
42	H	0.092905	0.82993	0.288891
43	H	0.030888	0.799353	0.290339
44	H	0.010318	0.786146	0.083393
45	C	0.025392	0.764049	0.342002
46	C	0.044307	0.75455	0.371162
47	C	0.080832	0.772604	0.370364
48	C	0.099651	0.800816	0.340622
49	C	0.080423	0.810037	0.644708
50	C	0.043894	0.791854	0.645172
51	H	0.031593	0.734512	0.393409
52	H	0.093619	0.765359	0.392574
53	H	0.092905	0.82993	0.622222
54	H	0.030888	0.799353	0.623673
55	H	0.010318	0.786146	0.416725
56	C	0.025392	0.764049	0.675335
57	C	0.044307	0.75455	0.704495
58	C	0.080832	0.772604	0.703697
59	C	0.099651	0.800816	0.673955
60	C	0.080423	0.810037	0.978044
61	C	0.043894	0.791854	0.978505
62	H	0.031593	0.734512	0.726741
63	H	0.093619	0.765359	0.725907
64	H	0.092905	0.82993	0.955558
65	H	0.030888	0.799353	0.957006
66	H	0.010318	0.786146	0.750058
67	C	0.136821	0.319502	0.007011
68	C	0.155643	0.356227	0.007015
69	C	0.155873	0.301837	0.00701
70	H	0.142674	0.275279	0.007107
71	H	0.142284	0.369427	0.007114
72	H	0.182171	0.265399	0.28888
73	H	0.181432	0.41848	0.059259
74	C	0.136821	0.319502	0.340343
75	C	0.155643	0.356227	0.34035
76	C	0.155873	0.301837	0.340343
77	H	0.142674	0.275279	0.340441
78	H	0.142284	0.369427	0.340447
79	H	0.182171	0.265399	0.622212
80	H	0.181432	0.41848	0.392591
81	C	0.136821	0.319502	0.673676
82	C	0.155643	0.356227	0.673682
83	C	0.155873	0.301837	0.673676
84	H	0.142674	0.275279	0.673773
85	H	0.142284	0.369427	0.67378
86	H	0.182171	0.265399	0.955545
87	H	0.181432	0.41848	0.725923
88	C	0.13682	0.819503	0.007011
89	C	0.155643	0.856228	0.007015
90	C	0.155874	0.801838	0.00701
91	H	0.142674	0.77528	0.007107
92	H	0.142283	0.869425	0.007114
93	H	0.182171	0.7654	0.28888
94	H	0.181431	0.918481	0.059259
95	C	0.13682	0.819503	0.340343
96	C	0.155643	0.856228	0.34035
97	C	0.155874	0.801838	0.340343
98	H	0.142674	0.77528	0.340441
99	H	0.142283	0.869425	0.340447
100	H	0.182171	0.7654	0.622212
101	H	0.181431	0.918481	0.392591
102	C	0.13682	0.819503	0.673676
103	C	0.155643	0.856228	0.673682
104	C	0.155874	0.801838	0.673676
105	H	0.142674	0.77528	0.673773
106	H	0.142283	0.869425	0.67378
107	H	0.182171	0.7654	0.955545
108	H	0.181431	0.918481	0.725923
109	C	0.192359	0.375279	0.007009
110	C	0.210262	0.356458	0.00701
111	C	0.192598	0.31974	0.007007
112	C	0.211285	0.301258	0.007282
113	C	0.202061	0.272808	0.311369
114	C	0.220246	0.254464	0.31183
115	H	0.212749	0.233961	0.290324
116	C	0.219929	0.467793	0.037838
117	C	0.201443	0.431267	0.03702
118	C	0.210843	0.412448	0.007289
119	H	0.212608	0.480505	0.060091
120	C	0.192359	0.375279	0.340343
121	C	0.210262	0.356458	0.340343
122	C	0.192598	0.31974	0.34034
123	C	0.211285	0.301258	0.340616
124	C	0.202061	0.272808	0.644701
125	C	0.220246	0.254464	0.645162
126	H	0.212749	0.233961	0.623656
127	C	0.219929	0.467793	0.371172
128	C	0.201443	0.431267	0.370354
129	C	0.210843	0.412448	0.340622
130	H	0.212608	0.480505	0.393425
131	C	0.192359	0.375279	0.673676
132	C	0.210262	0.356458	0.673676
133	C	0.192598	0.31974	0.673672
134	C	0.211285	0.301258	0.673948
135	C	0.202061	0.272808	0.978034
136	C	0.220246	0.254464	0.978495
137	H	0.212749	0.233961	0.956989
138	C	0.219929	0.467793	0.704505
139	C	0.201443	0.431267	0.703687
140	C	0.210843	0.412448	0.673955
141	H	0.212608	0.480505	0.726758
142	C	0.192359	0.87528	0.007009
143	C	0.210262	0.856459	0.00701
144	C	0.192598	0.819741	0.007007
145	C	0.211284	0.801257	0.007282
146	C	0.202061	0.772809	0.311369
147	C	0.220246	0.754464	0.31183
148	H	0.212748	0.73396	0.290324
149	C	0.219927	0.967791	0.037838
150	C	0.201444	0.931268	0.03702
151	C	0.210843	0.912449	0.007289
152	H	0.212608	0.980506	0.060091
153	C	0.192359	0.87528	0.340343
154	C	0.210262	0.856459	0.340343
155	C	0.192598	0.819741	0.34034
156	C	0.211284	0.801257	0.340616
157	C	0.202061	0.772809	0.644701
158	C	0.220246	0.754464	0.645162
159	H	0.212748	0.73396	0.623656
160	C	0.219927	0.967791	0.371172
161	C	0.201444	0.931268	0.370354
162	C	0.210843	0.912449	0.340622
163	H	0.212608	0.980506	0.393425
164	C	0.192359	0.87528	0.673676
165	C	0.210262	0.856459	0.673676
166	C	0.192598	0.819741	0.673672
167	C	0.211284	0.801257	0.673948
168	C	0.202061	0.772809	0.978034
169	C	0.220246	0.754464	0.978495
170	H	0.212748	0.73396	0.956989
171	C	0.219927	0.967791	0.704505
172	C	0.201444	0.931268	0.703687
173	C	0.210843	0.912449	0.673955
174	H	0.212608	0.980506	0.726758
175	H	0.23682	0.369816	0.007105
176	C	0.377529	0.190104	0.007599
177	C	0.358938	0.153421	0.007601
178	C	0.322252	0.134571	0.007601
179	C	0.304159	0.153162	0.007595
180	C	0.321997	0.189848	0.007598
181	C	0.358681	0.207942	0.007591
182	H	0.27758	0.139776	0.007854
183	H	0.371874	0.234522	0.007845
184	H	0.372325	0.140228	0.007849
185	C	0.303396	0.208192	0.00833
186	C	0.280407	0.20351	0.04395
187	C	0.26169	0.221557	0.045639
188	C	0.26589	0.24471	0.009884
189	C	0.288693	0.249196	0.307398
190	C	0.307457	0.231503	0.306866
191	H	0.292154	0.265775	0.281445
192	H	0.323678	0.23531	0.280356
193	C	0.248048	0.263763	0.008663
194	C	0.257549	0.292177	0.03782
195	C	0.239506	0.310659	0.037007
196	H	0.27758	0.299495	0.060076
197	H	0.246731	0.330671	0.059246
198	H	0.277541	0.186853	0.069546
199	N	0.240028	0.215611	0.08108
200	H	0.237389	0.199509	0.104985
201	H	0.225967	0.226605	0.083401
202	C	0.303906	0.097625	0.008334
203	C	0.308631	0.079316	0.043916
204	C	0.290581	0.042552	0.045608
205	C	0.267386	0.0236	0.009889
206	C	0.262854	0.041917	0.307443
207	C	0.280552	0.078374	0.30691
208	H	0.246247	0.028799	0.281514
209	H	0.276713	0.090787	0.280425
210	C	0.248333	0.486705	0.008669
211	C	0.239293	0.431674	0.311378
212	C	0.257632	0.468205	0.311831
213	H	0.246691	0.419196	0.288873
214	H	0.32532	0.093106	0.069485
215	H	0.278129	0.481213	0.290316
216	N	0.296573	0.026836	0.081008
217	H	0.31268	0.040296	0.10491
218	H	0.285549	0.50178	0.083351
219	C	0.414476	0.208706	0.008331
220	C	0.432782	0.231722	0.043928
221	C	0.469548	0.250434	0.045622
222	C	0.488498	0.246207	0.00989
223	C	0.470183	0.223379	0.307425
224	C	0.433725	0.204628	0.306883
225	H	0.483299	0.219901	0.281488
226	H	0.421312	0.188378	0.280399
227	H	0.418991	0.234598	0.069516
228	N	0.485263	0.272118	0.081045
229	H	0.4718	0.27475	0.104957
230	H	0.23682	0.369816	0.340437
231	C	0.377529	0.190104	0.340932
232	C	0.358938	0.153421	0.340935
233	C	0.322252	0.134571	0.340932
234	C	0.304159	0.153162	0.340929
235	C	0.321997	0.189848	0.340932
236	C	0.358681	0.207942	0.340925
237	H	0.27758	0.139776	0.341188
238	H	0.371874	0.234522	0.341178
239	H	0.372325	0.140228	0.341181
240	C	0.303396	0.208192	0.341662
241	C	0.280407	0.20351	0.377284
242	C	0.26169	0.221557	0.378974
243	C	0.26589	0.24471	0.343217
244	C	0.288693	0.249196	0.64073
245	C	0.307457	0.231503	0.640198
246	H	0.292154	0.265775	0.614778
247	H	0.323678	0.23531	0.613691
248	C	0.248048	0.263763	0.341996
249	C	0.257549	0.292177	0.371152
250	C	0.239506	0.310659	0.370341
251	H	0.27758	0.299495	0.393409
252	H	0.246731	0.330671	0.392577
253	H	0.277541	0.186853	0.402879
254	N	0.240028	0.215611	0.414413
255	H	0.237389	0.199509	0.438319
256	H	0.225967	0.226605	0.416732
257	C	0.303906	0.097625	0.341666
258	C	0.308631	0.079316	0.377247
259	C	0.290581	0.042552	0.37894
260	C	0.267386	0.0236	0.343224
261	C	0.262854	0.041917	0.640777
262	C	0.280552	0.078374	0.640242
263	H	0.246247	0.028799	0.614848
264	H	0.276713	0.090787	0.613758
265	C	0.248333	0.486705	0.342002
266	C	0.239293	0.431674	0.644711
267	C	0.257632	0.468205	0.645166
268	H	0.246691	0.419196	0.622206
269	H	0.32532	0.093106	0.402819
270	H	0.278129	0.481213	0.623649
271	N	0.296573	0.026836	0.414343
272	H	0.31268	0.040296	0.438242
273	H	0.285549	0.50178	0.416685
274	C	0.414476	0.208706	0.341662
275	C	0.432782	0.231722	0.37726
276	C	0.469548	0.250434	0.378957
277	C	0.488498	0.246207	0.343224
278	C	0.470183	0.223379	0.640757
279	C	0.433725	0.204628	0.640215
280	H	0.483299	0.219901	0.614821
281	H	0.421312	0.188378	0.613731
282	H	0.418991	0.234598	0.402849
283	N	0.485263	0.272118	0.41438
284	H	0.4718	0.27475	0.438289
285	H	0.23682	0.369816	0.67377
286	C	0.377529	0.190104	0.674265
287	C	0.358938	0.153421	0.674268
288	C	0.322252	0.134571	0.674268
289	C	0.304159	0.153162	0.674261
290	C	0.321997	0.189848	0.674265
291	C	0.358681	0.207942	0.674258
292	H	0.27758	0.139776	0.674521
293	H	0.371874	0.234522	0.67451
294	H	0.372325	0.140228	0.674514
295	C	0.303396	0.208192	0.674995
296	C	0.280407	0.20351	0.710617
297	C	0.26169	0.221557	0.712306
298	C	0.26589	0.24471	0.67655
299	C	0.288693	0.249196	0.974062
300	C	0.307457	0.231503	0.973531
301	H	0.292154	0.265775	0.94811
302	H	0.323678	0.23531	0.947023
303	C	0.248048	0.263763	0.675328
304	C	0.257549	0.292177	0.704484
305	C	0.239506	0.310659	0.703673
306	H	0.27758	0.299495	0.726741
307	H	0.246731	0.330671	0.725913
308	H	0.277541	0.186853	0.736212
309	N	0.240028	0.215611	0.747746
310	H	0.237389	0.199509	0.771652
311	H	0.225967	0.226605	0.750065
312	C	0.303906	0.097625	0.674998
313	C	0.308631	0.079316	0.710583
314	C	0.290581	0.042552	0.712272
315	C	0.267386	0.0236	0.676557
316	C	0.262854	0.041917	0.97411
317	C	0.280552	0.078374	0.973574
318	H	0.246247	0.028799	0.948181
319	H	0.276713	0.090787	0.947091
320	C	0.248333	0.486705	0.675335
321	C	0.239293	0.431674	0.978044
322	C	0.257632	0.468205	0.978498
323	H	0.246691	0.419196	0.955538
324	H	0.32532	0.093106	0.736151
325	H	0.278129	0.481213	0.956982
326	N	0.296573	0.026836	0.747675
327	H	0.31268	0.040296	0.771574
328	H	0.285549	0.50178	0.750018
329	C	0.414476	0.208706	0.674998
330	C	0.432782	0.231722	0.710593
331	C	0.469548	0.250434	0.712289
332	C	0.488498	0.246207	0.676557
333	C	0.470183	0.223379	0.974093
334	C	0.433725	0.204628	0.973548
335	H	0.483299	0.219901	0.948154
336	H	0.421312	0.188378	0.947064
337	H	0.418991	0.234598	0.736182
338	N	0.485263	0.272118	0.747712
339	H	0.4718	0.27475	0.771625
340	H	0.23682	0.869817	0.007105
341	C	0.377529	0.690106	0.007599
342	C	0.358939	0.653422	0.007601
343	C	0.322252	0.634572	0.007601
344	C	0.304159	0.653162	0.007595
345	C	0.321997	0.689849	0.007598
346	C	0.358679	0.707942	0.007591
347	H	0.277579	0.639776	0.007854
348	H	0.371873	0.734522	0.007845
349	H	0.372325	0.640227	0.007849
350	C	0.303396	0.708193	0.00833
351	C	0.280406	0.70351	0.04395
352	C	0.26169	0.721559	0.045639
353	C	0.26589	0.744711	0.009884
354	C	0.288692	0.749195	0.307398
355	C	0.307457	0.731504	0.306866
356	H	0.292154	0.765776	0.281445
357	H	0.323677	0.735311	0.280356
358	C	0.248048	0.763764	0.008663
359	C	0.257549	0.792178	0.03782
360	C	0.239506	0.81066	0.037007
361	H	0.277581	0.799496	0.060076
362	H	0.246731	0.830672	0.059246
363	H	0.277541	0.686854	0.069546
364	N	0.240027	0.71561	0.08108
365	H	0.237388	0.699509	0.104985
366	H	0.225967	0.726605	0.083401
367	C	0.303907	0.597626	0.008334
368	C	0.30863	0.579315	0.043916
369	C	0.29058	0.542551	0.045608
370	C	0.267385	0.523599	0.009889
371	C	0.262854	0.541918	0.307443
372	C	0.280551	0.578374	0.30691
373	H	0.246247	0.528799	0.281514
374	H	0.276713	0.590787	0.280425
375	C	0.248333	0.986706	0.008669
376	C	0.239294	0.931675	0.311378
377	C	0.257631	0.968206	0.311831
378	H	0.24669	0.919194	0.288873
379	H	0.325318	0.593106	0.069485
380	H	0.278128	0.981211	0.290316
381	N	0.296573	0.526836	0.081008
382	H	0.312679	0.540297	0.10491
383	H	0.285549	0.001781	0.083351
384	C	0.414475	0.708707	0.008331
385	C	0.432782	0.731722	0.043928
386	C	0.469547	0.750435	0.045622
387	C	0.488498	0.746208	0.00989
388	C	0.470182	0.723379	0.307425
389	C	0.433725	0.704628	0.306883
390	H	0.4833	0.719902	0.281488
391	H	0.421312	0.688378	0.280399
392	H	0.418991	0.734598	0.069516
393	N	0.485261	0.772117	0.081045
394	H	0.471799	0.774749	0.104957
395	H	0.23682	0.869817	0.340437
396	C	0.377529	0.690106	0.340932
397	C	0.358939	0.653422	0.340935
398	C	0.322252	0.634572	0.340932
399	C	0.304159	0.653162	0.340929
400	C	0.321997	0.689849	0.340932
401	C	0.358679	0.707942	0.340925
402	H	0.277579	0.639776	0.341188
403	H	0.371873	0.734522	0.341178
404	H	0.372325	0.640227	0.341181
405	C	0.303396	0.708193	0.341662
406	C	0.280406	0.70351	0.377284
407	C	0.26169	0.721559	0.378974
408	C	0.26589	0.744711	0.343217
409	C	0.288692	0.749195	0.64073
410	C	0.307457	0.731504	0.640198
411	H	0.292154	0.765776	0.614778
412	H	0.323677	0.735311	0.613691
413	C	0.248048	0.763764	0.341996
414	C	0.257549	0.792178	0.371152
415	C	0.239506	0.81066	0.370341
416	H	0.277581	0.799496	0.393409
417	H	0.246731	0.830672	0.392577
418	H	0.277541	0.686854	0.402879
419	N	0.240027	0.71561	0.414413
420	H	0.237388	0.699509	0.438319
421	H	0.225967	0.726605	0.416732
422	C	0.303907	0.597626	0.341666
423	C	0.30863	0.579315	0.377247
424	C	0.29058	0.542551	0.37894
425	C	0.267385	0.523599	0.343224
426	C	0.262854	0.541918	0.640777
427	C	0.280551	0.578374	0.640242
428	H	0.246247	0.528799	0.614848
429	H	0.276713	0.590787	0.613758
430	C	0.248333	0.986706	0.342002
431	C	0.239294	0.931675	0.644711
432	C	0.257631	0.968206	0.645166
433	H	0.24669	0.919194	0.622206
434	H	0.325318	0.593106	0.402819
435	H	0.278128	0.981211	0.623649
436	N	0.296573	0.526836	0.414343
437	H	0.312679	0.540297	0.438242
438	H	0.285549	0.001781	0.416685
439	C	0.414475	0.708707	0.341662
440	C	0.432782	0.731722	0.37726
441	C	0.469547	0.750435	0.378957
442	C	0.488498	0.746208	0.343224
443	C	0.470182	0.723379	0.640757
444	C	0.433725	0.704628	0.640215
445	H	0.4833	0.719902	0.614821
446	H	0.421312	0.688378	0.613731
447	H	0.418991	0.734598	0.402849
448	N	0.485261	0.772117	0.41438
449	H	0.471799	0.774749	0.438289
450	H	0.23682	0.869817	0.67377
451	C	0.377529	0.690106	0.674265
452	C	0.358939	0.653422	0.674268
453	C	0.322252	0.634572	0.674268
454	C	0.304159	0.653162	0.674261
455	C	0.321997	0.689849	0.674265
456	C	0.358679	0.707942	0.674258
457	H	0.277579	0.639776	0.674521
458	H	0.371873	0.734522	0.67451
459	H	0.372325	0.640227	0.674514
460	C	0.303396	0.708193	0.674995
461	C	0.280406	0.70351	0.710617
462	C	0.26169	0.721559	0.712306
463	C	0.26589	0.744711	0.67655
464	C	0.288692	0.749195	0.974062
465	C	0.307457	0.731504	0.973531
466	H	0.292154	0.765776	0.94811
467	H	0.323677	0.735311	0.947023
468	C	0.248048	0.763764	0.675328
469	C	0.257549	0.792178	0.704484
470	C	0.239506	0.81066	0.703673
471	H	0.277581	0.799496	0.726741
472	H	0.246731	0.830672	0.725913
473	H	0.277541	0.686854	0.736212
474	N	0.240027	0.71561	0.747746
475	H	0.237388	0.699509	0.771652
476	H	0.225967	0.726605	0.750065
477	C	0.303907	0.597626	0.674998
478	C	0.30863	0.579315	0.710583
479	C	0.29058	0.542551	0.712272
480	C	0.267385	0.523599	0.676557
481	C	0.262854	0.541918	0.97411
482	C	0.280551	0.578374	0.973574
483	H	0.246247	0.528799	0.948181
484	H	0.276713	0.590787	0.947091
485	C	0.248333	0.986706	0.675335
486	C	0.239294	0.931675	0.978044
487	C	0.257631	0.968206	0.978498
488	H	0.24669	0.919194	0.955538
489	H	0.325318	0.593106	0.736151
490	H	0.278128	0.981211	0.956982
491	N	0.296573	0.526836	0.747675
492	H	0.312679	0.540297	0.771574
493	H	0.285549	0.001781	0.750018
494	C	0.414475	0.708707	0.674998
495	C	0.432782	0.731722	0.710593
496	C	0.469547	0.750435	0.712289
497	C	0.488498	0.746208	0.676557
498	C	0.470182	0.723379	0.974093
499	C	0.433725	0.704628	0.973548
500	H	0.4833	0.719902	0.948154
501	H	0.421312	0.688378	0.947064
502	H	0.418991	0.734598	0.736182
503	N	0.485261	0.772117	0.747712
504	H	0.471799	0.774749	0.771625
505	C	0.63682	0.319502	0.007011
506	C	0.655643	0.356227	0.007015
507	C	0.692359	0.375279	0.007009
508	C	0.710262	0.356458	0.00701
509	C	0.692597	0.31974	0.007007
510	C	0.655873	0.301837	0.00701
511	H	0.73682	0.369816	0.007105
512	H	0.642673	0.275279	0.007107
513	H	0.642284	0.369427	0.007114
514	C	0.877528	0.190104	0.007599
515	C	0.858939	0.153421	0.007601
516	C	0.822253	0.134571	0.007601
517	C	0.80416	0.153162	0.007595
518	C	0.821998	0.189848	0.007598
519	C	0.858679	0.207942	0.007591
520	H	0.777579	0.139776	0.007854
521	H	0.871873	0.234522	0.007845
522	H	0.872326	0.140228	0.007849
523	C	0.803396	0.208192	0.00833
524	C	0.780407	0.20351	0.04395
525	C	0.761689	0.221557	0.045639
526	C	0.76589	0.24471	0.009884
527	C	0.788693	0.249196	0.307398
528	C	0.807456	0.231503	0.306866
529	H	0.792154	0.265775	0.281445
530	H	0.823677	0.23531	0.280356
531	C	0.748049	0.263763	0.008663
532	C	0.757548	0.292177	0.03782
533	C	0.739505	0.310659	0.037007
534	C	0.711285	0.301258	0.007282
535	C	0.702061	0.272808	0.311369
536	C	0.720245	0.254464	0.31183
537	H	0.777582	0.299495	0.060076
538	H	0.746731	0.330671	0.059246
539	H	0.682171	0.265399	0.28888
540	H	0.777541	0.186853	0.069546
541	H	0.712749	0.233961	0.290324
542	N	0.740028	0.215611	0.08108
543	H	0.737389	0.199509	0.104985
544	H	0.725966	0.226605	0.083401
545	C	0.803907	0.097625	0.008334
546	C	0.80863	0.079316	0.043916
547	C	0.790582	0.042552	0.045608
548	C	0.767385	0.0236	0.009889
549	C	0.762855	0.041917	0.307443
550	C	0.780551	0.078374	0.30691
551	H	0.746249	0.028799	0.281514
552	H	0.776714	0.090787	0.280425
553	C	0.748334	0.486705	0.008669
554	C	0.71993	0.467793	0.037838
555	C	0.701443	0.431267	0.03702
556	C	0.710842	0.412448	0.007289
557	C	0.739293	0.431674	0.311378
558	C	0.757633	0.468205	0.311831
559	H	0.712607	0.480505	0.060091
560	H	0.681431	0.41848	0.059259
561	H	0.74669	0.419196	0.288873
562	H	0.825319	0.093106	0.069485
563	H	0.77813	0.481213	0.290316
564	N	0.796574	0.026836	0.081008
565	H	0.812679	0.040296	0.10491
566	H	0.785548	0.50178	0.083351
567	C	0.914475	0.208706	0.008331
568	C	0.932783	0.231722	0.043928
569	C	0.969547	0.250434	0.045622
570	C	0.988499	0.246207	0.00989
571	C	0.970181	0.223379	0.307425
572	C	0.933726	0.204628	0.306883
573	H	0.9833	0.219901	0.281488
574	H	0.921311	0.188378	0.280399
575	C	0.525393	0.264051	0.00867
576	C	0.544307	0.254551	0.037829
577	C	0.580831	0.272603	0.03703
578	C	0.599651	0.300815	0.00729
579	C	0.580425	0.310036	0.311377
580	C	0.543896	0.291853	0.311839
581	H	0.531592	0.234511	0.060075
582	H	0.593618	0.265358	0.05924
583	H	0.592904	0.329929	0.288891
584	H	0.918992	0.234598	0.069516
585	H	0.530887	0.299352	0.290339
586	N	0.985262	0.272118	0.081045
587	H	0.971801	0.27475	0.104957
588	H	0.510318	0.286148	0.083393
589	C	0.63682	0.319502	0.340343
590	C	0.655643	0.356227	0.34035
591	C	0.692359	0.375279	0.340343
592	C	0.710262	0.356458	0.340343
593	C	0.692597	0.31974	0.34034
594	C	0.655873	0.301837	0.340343
595	H	0.73682	0.369816	0.340437
596	H	0.642673	0.275279	0.340441
597	H	0.642284	0.369427	0.340447
598	C	0.877528	0.190104	0.340932
599	C	0.858939	0.153421	0.340935
600	C	0.822253	0.134571	0.340932
601	C	0.80416	0.153162	0.340929
602	C	0.821998	0.189848	0.340932
603	C	0.858679	0.207942	0.340925
604	H	0.777579	0.139776	0.341188
605	H	0.871873	0.234522	0.341178
606	H	0.872326	0.140228	0.341181
607	C	0.803396	0.208192	0.341662
608	C	0.780407	0.20351	0.377284
609	C	0.761689	0.221557	0.378974
610	C	0.76589	0.24471	0.343217
611	C	0.788693	0.249196	0.64073
612	C	0.807456	0.231503	0.640198
613	H	0.792154	0.265775	0.614778
614	H	0.823677	0.23531	0.613691
615	C	0.748049	0.263763	0.341996
616	C	0.757548	0.292177	0.371152
617	C	0.739505	0.310659	0.370341
618	C	0.711285	0.301258	0.340616
619	C	0.702061	0.272808	0.644701
620	C	0.720245	0.254464	0.645162
621	H	0.777582	0.299495	0.393409
622	H	0.746731	0.330671	0.392577
623	H	0.682171	0.265399	0.622212
624	H	0.777541	0.186853	0.402879
625	H	0.712749	0.233961	0.623656
626	N	0.740028	0.215611	0.414413
627	H	0.737389	0.199509	0.438319
628	H	0.725966	0.226605	0.416732
629	C	0.803907	0.097625	0.341666
630	C	0.80863	0.079316	0.377247
631	C	0.790582	0.042552	0.37894
632	C	0.767385	0.0236	0.343224
633	C	0.762855	0.041917	0.640777
634	C	0.780551	0.078374	0.640242
635	H	0.746249	0.028799	0.614848
636	H	0.776714	0.090787	0.613758
637	C	0.748334	0.486705	0.342002
638	C	0.71993	0.467793	0.371172
639	C	0.701443	0.431267	0.370354
640	C	0.710842	0.412448	0.340622
641	C	0.739293	0.431674	0.644711
642	C	0.757633	0.468205	0.645166
643	H	0.712607	0.480505	0.393425
644	H	0.681431	0.41848	0.392591
645	H	0.74669	0.419196	0.622206
646	H	0.825319	0.093106	0.402819
647	H	0.77813	0.481213	0.623649
648	N	0.796574	0.026836	0.414343
649	H	0.812679	0.040296	0.438242
650	H	0.785548	0.50178	0.416685
651	C	0.914475	0.208706	0.341662
652	C	0.932783	0.231722	0.37726
653	C	0.969547	0.250434	0.378957
654	C	0.988499	0.246207	0.343224
655	C	0.970181	0.223379	0.640757
656	C	0.933726	0.204628	0.640215
657	H	0.9833	0.219901	0.614821
658	H	0.921311	0.188378	0.613731
659	C	0.525393	0.264051	0.342002
660	C	0.544307	0.254551	0.371162
661	C	0.580831	0.272603	0.370364
662	C	0.599651	0.300815	0.340622
663	C	0.580425	0.310036	0.644708
664	C	0.543896	0.291853	0.645172
665	H	0.531592	0.234511	0.393409
666	H	0.593618	0.265358	0.392574
667	H	0.592904	0.329929	0.622222
668	H	0.918992	0.234598	0.402849
669	H	0.530887	0.299352	0.623673
670	N	0.985262	0.272118	0.41438
671	H	0.971801	0.27475	0.438289
672	H	0.510318	0.286148	0.416725
673	C	0.63682	0.319502	0.673676
674	C	0.655643	0.356227	0.673682
675	C	0.692359	0.375279	0.673676
676	C	0.710262	0.356458	0.673676
677	C	0.692597	0.31974	0.673672
678	C	0.655873	0.301837	0.673676
679	H	0.73682	0.369816	0.67377
680	H	0.642673	0.275279	0.673773
681	H	0.642284	0.369427	0.67378
682	C	0.877528	0.190104	0.674265
683	C	0.858939	0.153421	0.674268
684	C	0.822253	0.134571	0.674268
685	C	0.80416	0.153162	0.674261
686	C	0.821998	0.189848	0.674265
687	C	0.858679	0.207942	0.674258
688	H	0.777579	0.139776	0.674521
689	H	0.871873	0.234522	0.67451
690	H	0.872326	0.140228	0.674514
691	C	0.803396	0.208192	0.674995
692	C	0.780407	0.20351	0.710617
693	C	0.761689	0.221557	0.712306
694	C	0.76589	0.24471	0.67655
695	C	0.788693	0.249196	0.974062
696	C	0.807456	0.231503	0.973531
697	H	0.792154	0.265775	0.94811
698	H	0.823677	0.23531	0.947023
699	C	0.748049	0.263763	0.675328
700	C	0.757548	0.292177	0.704484
701	C	0.739505	0.310659	0.703673
702	C	0.711285	0.301258	0.673948
703	C	0.702061	0.272808	0.978034
704	C	0.720245	0.254464	0.978495
705	H	0.777582	0.299495	0.726741
706	H	0.746731	0.330671	0.725913
707	H	0.682171	0.265399	0.955545
708	H	0.777541	0.186853	0.736212
709	H	0.712749	0.233961	0.956989
710	N	0.740028	0.215611	0.747746
711	H	0.737389	0.199509	0.771652
712	H	0.725966	0.226605	0.750065
713	C	0.803907	0.097625	0.674998
714	C	0.80863	0.079316	0.710583
715	C	0.790582	0.042552	0.712272
716	C	0.767385	0.0236	0.676557
717	C	0.762855	0.041917	0.97411
718	C	0.780551	0.078374	0.973574
719	H	0.746249	0.028799	0.948181
720	H	0.776714	0.090787	0.947091
721	C	0.748334	0.486705	0.675335
722	C	0.71993	0.467793	0.704505
723	C	0.701443	0.431267	0.703687
724	C	0.710842	0.412448	0.673955
725	C	0.739293	0.431674	0.978044
726	C	0.757633	0.468205	0.978498
727	H	0.712607	0.480505	0.726758
728	H	0.681431	0.41848	0.725923
729	H	0.74669	0.419196	0.955538
730	H	0.825319	0.093106	0.736151
731	H	0.77813	0.481213	0.956982
732	N	0.796574	0.026836	0.747675
733	H	0.812679	0.040296	0.771574
734	H	0.785548	0.50178	0.750018
735	C	0.914475	0.208706	0.674998
736	C	0.932783	0.231722	0.710593
737	C	0.969547	0.250434	0.712289
738	C	0.988499	0.246207	0.676557
739	C	0.970181	0.223379	0.974093
740	C	0.933726	0.204628	0.973548
741	H	0.9833	0.219901	0.948154
742	H	0.921311	0.188378	0.947064
743	C	0.525393	0.264051	0.675335
744	C	0.544307	0.254551	0.704495
745	C	0.580831	0.272603	0.703697
746	C	0.599651	0.300815	0.673955
747	C	0.580425	0.310036	0.978044
748	C	0.543896	0.291853	0.978505
749	H	0.531592	0.234511	0.726741
750	H	0.593618	0.265358	0.725907
751	H	0.592904	0.329929	0.955558
752	H	0.918992	0.234598	0.736182
753	H	0.530887	0.299352	0.957006
754	N	0.985262	0.272118	0.747712
755	H	0.971801	0.27475	0.771625
756	H	0.510318	0.286148	0.750058
757	C	0.636821	0.819503	0.007011
758	C	0.655642	0.856228	0.007015
759	C	0.692358	0.87528	0.007009
760	C	0.710263	0.856459	0.00701
761	C	0.692598	0.819741	0.007007
762	C	0.655873	0.801838	0.00701
763	H	0.73682	0.869817	0.007105
764	H	0.642675	0.77528	0.007107
765	H	0.642283	0.869425	0.007114
766	C	0.87753	0.690106	0.007599
767	C	0.858939	0.653422	0.007601
768	C	0.822252	0.634572	0.007601
769	C	0.804159	0.653162	0.007595
770	C	0.821997	0.689849	0.007598
771	C	0.858678	0.707942	0.007591
772	H	0.77758	0.639776	0.007854
773	H	0.871872	0.734522	0.007845
774	H	0.872325	0.640227	0.007849
775	C	0.803396	0.708193	0.00833
776	C	0.780406	0.70351	0.04395
777	C	0.76169	0.721559	0.045639
778	C	0.765891	0.744711	0.009884
779	C	0.788691	0.749195	0.307398
780	C	0.807456	0.731504	0.306866
781	H	0.792153	0.765776	0.281445
782	H	0.823678	0.735311	0.280356
783	C	0.748048	0.763764	0.008663
784	C	0.757548	0.792178	0.03782
785	C	0.739507	0.81066	0.037007
786	C	0.711285	0.801257	0.007282
787	C	0.70206	0.772809	0.311369
788	C	0.720246	0.754464	0.31183
789	H	0.777581	0.799496	0.060076
790	H	0.746732	0.830672	0.059246
791	H	0.68217	0.7654	0.28888
792	H	0.77754	0.686854	0.069546
793	H	0.712747	0.73396	0.290324
794	N	0.740026	0.71561	0.08108
795	H	0.737388	0.699509	0.104985
796	H	0.725968	0.726605	0.083401
797	C	0.803907	0.597626	0.008334
798	C	0.80863	0.579315	0.043916
799	C	0.790581	0.542551	0.045608
800	C	0.767386	0.523599	0.009889
801	C	0.762854	0.541918	0.307443
802	C	0.78055	0.578374	0.30691
803	H	0.746247	0.528799	0.281514
804	H	0.776714	0.590787	0.280425
805	C	0.748334	0.986706	0.008669
806	C	0.719929	0.967791	0.037838
807	C	0.701442	0.931268	0.03702
808	C	0.710842	0.912449	0.007289
809	C	0.739292	0.931675	0.311378
810	C	0.757632	0.968206	0.311831
811	H	0.712608	0.980506	0.060091
812	H	0.681432	0.918481	0.059259
813	H	0.746691	0.919194	0.288873
814	H	0.825318	0.593106	0.069485
815	H	0.778128	0.981211	0.290316
816	N	0.796573	0.526836	0.081008
817	H	0.812678	0.540297	0.10491
818	H	0.785549	0.001781	0.083351
819	C	0.914474	0.708707	0.008331
820	C	0.932782	0.731722	0.043928
821	C	0.969546	0.750435	0.045622
822	C	0.988498	0.746208	0.00989
823	C	0.970182	0.723379	0.307425
824	C	0.933725	0.704628	0.306883
825	H	0.9833	0.719902	0.281488
826	H	0.92131	0.688378	0.280399
827	C	0.525393	0.764049	0.00867
828	C	0.544306	0.75455	0.037829
829	C	0.580832	0.772604	0.03703
830	C	0.59965	0.800816	0.00729
831	C	0.580424	0.810037	0.311377
832	C	0.543895	0.791854	0.311839
833	H	0.531593	0.734512	0.060075
834	H	0.593619	0.765359	0.05924
835	H	0.592904	0.82993	0.288891
836	H	0.918991	0.734598	0.069516
837	H	0.530887	0.799353	0.290339
838	N	0.98526	0.772117	0.081045
839	H	0.971799	0.774749	0.104957
840	H	0.510317	0.786146	0.083393
841	C	0.636821	0.819503	0.340343
842	C	0.655642	0.856228	0.34035
843	C	0.692358	0.87528	0.340343
844	C	0.710263	0.856459	0.340343
845	C	0.692598	0.819741	0.34034
846	C	0.655873	0.801838	0.340343
847	H	0.73682	0.869817	0.340437
848	H	0.642675	0.77528	0.340441
849	H	0.642283	0.869425	0.340447
850	C	0.87753	0.690106	0.340932
851	C	0.858939	0.653422	0.340935
852	C	0.822252	0.634572	0.340932
853	C	0.804159	0.653162	0.340929
854	C	0.821997	0.689849	0.340932
855	C	0.858678	0.707942	0.340925
856	H	0.77758	0.639776	0.341188
857	H	0.871872	0.734522	0.341178
858	H	0.872325	0.640227	0.341181
859	C	0.803396	0.708193	0.341662
860	C	0.780406	0.70351	0.377284
861	C	0.76169	0.721559	0.378974
862	C	0.765891	0.744711	0.343217
863	C	0.788691	0.749195	0.64073
864	C	0.807456	0.731504	0.640198
865	H	0.792153	0.765776	0.614778
866	H	0.823678	0.735311	0.613691
867	C	0.748048	0.763764	0.341996
868	C	0.757548	0.792178	0.371152
869	C	0.739507	0.81066	0.370341
870	C	0.711285	0.801257	0.340616
871	C	0.70206	0.772809	0.644701
872	C	0.720246	0.754464	0.645162
873	H	0.777581	0.799496	0.393409
874	H	0.746732	0.830672	0.392577
875	H	0.68217	0.7654	0.622212
876	H	0.77754	0.686854	0.402879
877	H	0.712747	0.73396	0.623656
878	N	0.740026	0.71561	0.414413
879	H	0.737388	0.699509	0.438319
880	H	0.725968	0.726605	0.416732
881	C	0.803907	0.597626	0.341666
882	C	0.80863	0.579315	0.377247
883	C	0.790581	0.542551	0.37894
884	C	0.767386	0.523599	0.343224
885	C	0.762854	0.541918	0.640777
886	C	0.78055	0.578374	0.640242
887	H	0.746247	0.528799	0.614848
888	H	0.776714	0.590787	0.613758
889	C	0.748334	0.986706	0.342002
890	C	0.719929	0.967791	0.371172
891	C	0.701442	0.931268	0.370354
892	C	0.710842	0.912449	0.340622
893	C	0.739292	0.931675	0.644711
894	C	0.757632	0.968206	0.645166
895	H	0.712608	0.980506	0.393425
896	H	0.681432	0.918481	0.392591
897	H	0.746691	0.919194	0.622206
898	H	0.825318	0.593106	0.402819
899	H	0.778128	0.981211	0.623649
900	N	0.796573	0.526836	0.414343
901	H	0.812678	0.540297	0.438242
902	H	0.785549	0.001781	0.416685
903	C	0.914474	0.708707	0.341662
904	C	0.932782	0.731722	0.37726
905	C	0.969546	0.750435	0.378957
906	C	0.988498	0.746208	0.343224
907	C	0.970182	0.723379	0.640757
908	C	0.933725	0.704628	0.640215
909	H	0.9833	0.719902	0.614821
910	H	0.92131	0.688378	0.613731
911	C	0.525393	0.764049	0.342002
912	C	0.544306	0.75455	0.371162
913	C	0.580832	0.772604	0.370364
914	C	0.59965	0.800816	0.340622
915	C	0.580424	0.810037	0.644708
916	C	0.543895	0.791854	0.645172
917	H	0.531593	0.734512	0.393409
918	H	0.593619	0.765359	0.392574
919	H	0.592904	0.82993	0.622222
920	H	0.918991	0.734598	0.402849
921	H	0.530887	0.799353	0.623673
922	N	0.98526	0.772117	0.41438
923	H	0.971799	0.774749	0.438289
924	H	0.510317	0.786146	0.416725
925	C	0.636821	0.819503	0.673676
926	C	0.655642	0.856228	0.673682
927	C	0.692358	0.87528	0.673676
928	C	0.710263	0.856459	0.673676
929	C	0.692598	0.819741	0.673672
930	C	0.655873	0.801838	0.673676
931	H	0.73682	0.869817	0.67377
932	H	0.642675	0.77528	0.673773
933	H	0.642283	0.869425	0.67378
934	C	0.87753	0.690106	0.674265
935	C	0.858939	0.653422	0.674268
936	C	0.822252	0.634572	0.674268
937	C	0.804159	0.653162	0.674261
938	C	0.821997	0.689849	0.674265
939	C	0.858678	0.707942	0.674258
940	H	0.77758	0.639776	0.674521
941	H	0.871872	0.734522	0.67451
942	H	0.872325	0.640227	0.674514
943	C	0.803396	0.708193	0.674995
944	C	0.780406	0.70351	0.710617
945	C	0.76169	0.721559	0.712306
946	C	0.765891	0.744711	0.67655
947	C	0.788691	0.749195	0.974062
948	C	0.807456	0.731504	0.973531
949	H	0.792153	0.765776	0.94811
950	H	0.823678	0.735311	0.947023
951	C	0.748048	0.763764	0.675328
952	C	0.757548	0.792178	0.704484
953	C	0.739507	0.81066	0.703673
954	C	0.711285	0.801257	0.673948
955	C	0.70206	0.772809	0.978034
956	C	0.720246	0.754464	0.978495
957	H	0.777581	0.799496	0.726741
958	H	0.746732	0.830672	0.725913
959	H	0.68217	0.7654	0.955545
960	H	0.77754	0.686854	0.736212
961	H	0.712747	0.73396	0.956989
962	N	0.740026	0.71561	0.747746
963	H	0.737388	0.699509	0.771652
964	H	0.725968	0.726605	0.750065
965	C	0.803907	0.597626	0.674998
966	C	0.80863	0.579315	0.710583
967	C	0.790581	0.542551	0.712272
968	C	0.767386	0.523599	0.676557
969	C	0.762854	0.541918	0.97411
970	C	0.78055	0.578374	0.973574
971	H	0.746247	0.528799	0.948181
972	H	0.776714	0.590787	0.947091
973	C	0.748334	0.986706	0.675335
974	C	0.719929	0.967791	0.704505
975	C	0.701442	0.931268	0.703687
976	C	0.710842	0.912449	0.673955
977	C	0.739292	0.931675	0.978044
978	C	0.757632	0.968206	0.978498
979	H	0.712608	0.980506	0.726758
980	H	0.681432	0.918481	0.725923
981	H	0.746691	0.919194	0.955538
982	H	0.825318	0.593106	0.736151
983	H	0.778128	0.981211	0.956982
984	N	0.796573	0.526836	0.747675
985	H	0.812678	0.540297	0.771574
986	H	0.785549	0.001781	0.750018
987	C	0.914474	0.708707	0.674998
988	C	0.932782	0.731722	0.710593
989	C	0.969546	0.750435	0.712289
990	C	0.988498	0.746208	0.676557
991	C	0.970182	0.723379	0.974093
992	C	0.933725	0.704628	0.973548
993	H	0.9833	0.719902	0.948154
994	H	0.92131	0.688378	0.947064
995	C	0.525393	0.764049	0.675335
996	C	0.544306	0.75455	0.704495
997	C	0.580832	0.772604	0.703697
998	C	0.59965	0.800816	0.673955
999	C	0.580424	0.810037	0.978044
1000	C	0.543895	0.791854	0.978505
1001	H	0.531593	0.734512	0.726741
1002	H	0.593619	0.765359	0.725907
1003	H	0.592904	0.82993	0.955558
1004	H	0.918991	0.734598	0.736182
1005	H	0.530887	0.799353	0.957006
1006	N	0.98526	0.772117	0.747712
1007	H	0.971799	0.774749	0.771625
1008	H	0.510317	0.786146	0.750058
