data_C504H216N144O72_2018-02-15_10:37:14
#******************************************
#
# CIF file created by Zeo++
# Zeo++ is an open source package to
# analyze microporous materials
#
#*******************************************

_cell_length_a		43.6033   
_cell_length_b		43.6032   
_cell_length_c		29.789   
_cell_angle_alpha		90   
_cell_angle_beta		90   
_cell_angle_gamma		120   

_symmetry_space_group_name_H-M		'P1'
_symmetry_Int_Tables_number		1
_symmetry_cell_setting		Monoclinic

loop_
_symmetry_equiv_pos_as_xyz
'+x,+y,+z'

loop_
_atom_site_label
_atom_site_type_symbol
_atom_site_fract_x
_atom_site_fract_y
_atom_site_fract_z
1	C	0.078247	0.288627	0.298227
2	N	0.042355	0.270648	0.300587
3	C	0.024001	0.2626	0.00655
4	C	0.043028	0.273416	0.047719
5	C	0.024118	0.264886	0.088756
6	O	0.041467	0.275325	0.128776
7	H	0.045652	0.256146	0.138392
8	C	0.078247	0.288627	0.631559
9	N	0.042355	0.270648	0.633919
10	C	0.024001	0.2626	0.339884
11	C	0.043028	0.273416	0.38105
12	C	0.024118	0.264886	0.422089
13	O	0.041467	0.275325	0.462107
14	H	0.045652	0.256146	0.471725
15	C	0.078247	0.288627	0.964894
16	N	0.042355	0.270648	0.967254
17	C	0.024001	0.2626	0.673215
18	C	0.043028	0.273416	0.714385
19	C	0.024118	0.264886	0.755424
20	O	0.041467	0.275325	0.795442
21	H	0.045652	0.256146	0.80506
22	C	0.078248	0.788628	0.298227
23	N	0.042354	0.770649	0.300587
24	C	0.024001	0.762601	0.006551
25	C	0.043027	0.773417	0.047719
26	C	0.024119	0.764887	0.088756
27	O	0.041468	0.775326	0.128776
28	H	0.045652	0.756145	0.138392
29	C	0.078248	0.788628	0.631559
30	N	0.042354	0.770649	0.633919
31	C	0.024001	0.762601	0.339884
32	C	0.043027	0.773417	0.381054
33	C	0.024119	0.764887	0.422089
34	O	0.041468	0.775326	0.462111
35	H	0.045652	0.756145	0.471725
36	C	0.078248	0.788628	0.964894
37	N	0.042354	0.770649	0.967254
38	C	0.024001	0.762601	0.673215
39	C	0.043027	0.773417	0.714385
40	C	0.024119	0.764887	0.755424
41	O	0.041468	0.775326	0.795442
42	H	0.045652	0.756145	0.80506
43	C	0.098568	0.300192	0.004532
44	C	0.080513	0.292398	0.045976
45	H	0.094918	0.300533	0.075081
46	H	0.090108	0.293648	0.267397
47	C	0.098568	0.300192	0.337867
48	C	0.080513	0.292398	0.379308
49	H	0.094918	0.300533	0.408413
50	H	0.090108	0.293648	0.600729
51	C	0.098568	0.300192	0.671198
52	C	0.080513	0.292398	0.712643
53	H	0.094918	0.300533	0.741748
54	H	0.090108	0.293648	0.934064
55	C	0.098566	0.80019	0.004532
56	C	0.080514	0.792399	0.045976
57	H	0.094918	0.800534	0.075081
58	H	0.090108	0.793649	0.267397
59	C	0.098566	0.80019	0.337867
60	C	0.080514	0.792399	0.379308
61	H	0.094918	0.800534	0.408416
62	H	0.090108	0.793649	0.600729
63	C	0.098566	0.80019	0.671198
64	C	0.080514	0.792399	0.712643
65	H	0.094918	0.800534	0.741748
66	H	0.090108	0.793649	0.934064
67	N	0.15401	0.354824	0.00324
68	C	0.135819	0.31883	0.002898
69	N	0.153985	0.300999	0.002767
70	N	0.15401	0.354824	0.336574
71	C	0.135819	0.31883	0.336232
72	N	0.153985	0.300999	0.336101
73	N	0.15401	0.354824	0.669906
74	C	0.135819	0.31883	0.669563
75	N	0.153985	0.300999	0.669432
76	N	0.15401	0.854825	0.00324
77	C	0.135817	0.818828	0.002898
78	N	0.153986	0.801	0.002767
79	N	0.15401	0.854825	0.336574
80	C	0.135817	0.818828	0.336232
81	N	0.153986	0.801	0.336101
82	N	0.15401	0.854825	0.669906
83	C	0.135817	0.818828	0.669563
84	N	0.153986	0.801	0.669432
85	C	0.190004	0.372991	0.002495
86	C	0.189977	0.318801	0.002092
87	N	0.207807	0.354798	0.002297
88	C	0.320538	0.134092	0.003859
89	N	0.356536	0.152265	0.003657
90	C	0.374724	0.188262	0.003515
91	N	0.356554	0.206087	0.00409
92	C	0.320556	0.188278	0.004223
93	N	0.30273	0.152279	0.004504
94	C	0.208615	0.300189	0.003864
95	C	0.22026	0.291365	0.297689
96	N	0.238234	0.273453	0.300282
97	C	0.246205	0.263218	0.00636
98	C	0.235311	0.271506	0.047409
99	C	0.216329	0.290001	0.045423
100	H	0.208144	0.296328	0.074443
101	C	0.264937	0.244506	0.006694
102	C	0.2933	0.218343	0.298967
103	C	0.301954	0.206941	0.005492
104	C	0.291567	0.21489	0.04674
105	H	0.215296	0.298147	0.266789
106	N	0.275369	0.236319	0.300933
107	C	0.273028	0.233851	0.048074
108	C	0.262492	0.242509	0.088897
109	C	0.243757	0.261202	0.088567
110	H	0.297762	0.20688	0.076002
111	H	0.300226	0.213203	0.268264
112	O	0.269296	0.232188	0.129074
113	H	0.291897	0.252046	0.13968
114	O	0.233239	0.268188	0.128478
115	H	0.252454	0.291519	0.138143
116	C	0.208675	0.41024	0.0042
117	C	0.220326	0.430634	0.297962
118	N	0.238295	0.466525	0.300435
119	C	0.246266	0.484805	0.006452
120	C	0.235387	0.465704	0.047561
121	C	0.216394	0.428221	0.045697
122	H	0.20821	0.413765	0.07476
123	C	0.26498	0.02225	0.00666
124	C	0.293303	0.076696	0.298752
125	C	0.301934	0.096829	0.005206
126	C	0.291572	0.078572	0.046515
127	H	0.215356	0.418831	0.267098
128	N	0.275393	0.040793	0.30084
129	C	0.273069	0.041076	0.047978
130	C	0.262575	0.021963	0.088864
131	C	0.243855	0.484535	0.088656
132	H	0.29777	0.092835	0.075732
133	H	0.300217	0.088703	0.268013
134	O	0.269406	0.039166	0.128987
135	H	0.292017	0.041938	0.139592
136	O	0.233385	0.467108	0.128622
137	H	0.252597	0.462982	0.138269
138	C	0.486558	0.243869	0.00664
139	C	0.432191	0.215588	0.298553
140	C	0.411983	0.206863	0.004946
141	C	0.430161	0.217165	0.046316
142	N	0.46809	0.233514	0.300759
143	C	0.467654	0.235697	0.047902
144	C	0.486688	0.246152	0.088848
145	H	0.415844	0.210909	0.075492
146	H	0.420245	0.208722	0.267776
147	O	0.469408	0.239263	0.128917
148	H	0.466735	0.216704	0.139578
149	C	0.190004	0.372991	0.335829
150	C	0.189977	0.318801	0.335424
151	N	0.207807	0.354798	0.335631
152	C	0.320538	0.134092	0.337192
153	N	0.356536	0.152265	0.33699
154	C	0.374724	0.188262	0.336849
155	N	0.356554	0.206087	0.337423
156	C	0.320556	0.188278	0.337554
157	N	0.30273	0.152279	0.337836
158	C	0.208615	0.300189	0.337199
159	C	0.22026	0.291365	0.631022
160	N	0.238234	0.273453	0.633614
161	C	0.246205	0.263218	0.339693
162	C	0.235311	0.271506	0.380742
163	C	0.216329	0.290001	0.378754
164	H	0.208144	0.296328	0.407775
165	C	0.264937	0.244506	0.340028
166	C	0.2933	0.218343	0.632301
167	C	0.301954	0.206941	0.338823
168	C	0.291567	0.21489	0.380073
169	H	0.215296	0.298147	0.600121
170	N	0.275369	0.236319	0.634268
171	C	0.273028	0.233851	0.381406
172	C	0.262492	0.242509	0.42223
173	C	0.243757	0.261202	0.421901
174	H	0.297762	0.20688	0.409336
175	H	0.300226	0.213203	0.601598
176	O	0.269296	0.232188	0.462406
177	H	0.291897	0.252046	0.473014
178	O	0.233239	0.268188	0.461812
179	H	0.252454	0.291519	0.471476
180	C	0.208675	0.41024	0.337534
181	C	0.220326	0.430634	0.631294
182	N	0.238295	0.466525	0.633768
183	C	0.246266	0.484805	0.339783
184	C	0.235387	0.465704	0.380893
185	C	0.216394	0.428221	0.379029
186	H	0.20821	0.413765	0.408094
187	C	0.26498	0.02225	0.339995
188	C	0.293303	0.076696	0.632086
189	C	0.301934	0.096829	0.338538
190	C	0.291572	0.078572	0.379849
191	H	0.215356	0.418831	0.60043
192	N	0.275393	0.040793	0.634174
193	C	0.273069	0.041076	0.381312
194	C	0.262575	0.021963	0.422196
195	C	0.243855	0.484535	0.421988
196	H	0.29777	0.092835	0.409064
197	H	0.300217	0.088703	0.601347
198	O	0.269406	0.039166	0.462319
199	H	0.292017	0.041938	0.472923
200	O	0.233385	0.467108	0.461956
201	H	0.252597	0.462982	0.471601
202	C	0.486558	0.243869	0.339975
203	C	0.432191	0.215588	0.631885
204	C	0.411983	0.206863	0.338279
205	C	0.430161	0.217165	0.37965
206	N	0.46809	0.233514	0.634094
207	C	0.467654	0.235697	0.381235
208	C	0.486688	0.246152	0.42218
209	H	0.415844	0.210909	0.408826
210	H	0.420245	0.208722	0.601108
211	O	0.469408	0.239263	0.462252
212	H	0.466735	0.216704	0.47291
213	C	0.190004	0.372991	0.669164
214	C	0.189977	0.318801	0.668757
215	N	0.207807	0.354798	0.668962
216	C	0.320538	0.134092	0.670523
217	N	0.356536	0.152265	0.670322
218	C	0.374724	0.188262	0.670181
219	N	0.356554	0.206087	0.670755
220	C	0.320556	0.188278	0.670889
221	N	0.30273	0.152279	0.671171
222	C	0.208615	0.300189	0.67053
223	C	0.22026	0.291365	0.964357
224	N	0.238234	0.273453	0.966948
225	C	0.246205	0.263218	0.673027
226	C	0.235311	0.271506	0.714076
227	C	0.216329	0.290001	0.712089
228	H	0.208144	0.296328	0.74111
229	C	0.264937	0.244506	0.67336
230	C	0.2933	0.218343	0.965632
231	C	0.301954	0.206941	0.672158
232	C	0.291567	0.21489	0.713405
233	H	0.215296	0.298147	0.933456
234	N	0.275369	0.236319	0.9676
235	C	0.273028	0.233851	0.714741
236	C	0.262492	0.242509	0.755565
237	C	0.243757	0.261202	0.755232
238	H	0.297762	0.20688	0.742667
239	H	0.300226	0.213203	0.93493
240	O	0.269296	0.232188	0.795741
241	H	0.291897	0.252046	0.806345
242	O	0.233239	0.268188	0.795143
243	H	0.252454	0.291519	0.804808
244	C	0.208675	0.41024	0.670866
245	C	0.220326	0.430634	0.964629
246	N	0.238295	0.466525	0.967099
247	C	0.246266	0.484805	0.673118
248	C	0.235387	0.465704	0.714227
249	C	0.216394	0.428221	0.712364
250	H	0.20821	0.413765	0.741425
251	C	0.26498	0.02225	0.673326
252	C	0.293303	0.076696	0.965418
253	C	0.301934	0.096829	0.671873
254	C	0.291572	0.078572	0.71318
255	H	0.215356	0.418831	0.933765
256	N	0.275393	0.040793	0.967506
257	C	0.273069	0.041076	0.714644
258	C	0.262575	0.021963	0.755531
259	C	0.243855	0.484535	0.755323
260	H	0.29777	0.092835	0.742399
261	H	0.300217	0.088703	0.934678
262	O	0.269406	0.039166	0.795653
263	H	0.292017	0.041938	0.806258
264	O	0.233385	0.467108	0.795287
265	H	0.252597	0.462982	0.804935
266	C	0.486558	0.243869	0.673306
267	C	0.432191	0.215588	0.965219
268	C	0.411983	0.206863	0.671611
269	C	0.430161	0.217165	0.712982
270	N	0.46809	0.233514	0.967425
271	C	0.467654	0.235697	0.71457
272	C	0.486688	0.246152	0.755514
273	H	0.415844	0.210909	0.742157
274	H	0.420245	0.208722	0.934443
275	O	0.469408	0.239263	0.795583
276	H	0.466735	0.216704	0.806245
277	C	0.190004	0.872992	0.002495
278	C	0.189977	0.818801	0.002092
279	N	0.207807	0.854798	0.002297
280	C	0.320538	0.634092	0.003859
281	N	0.356535	0.652264	0.003657
282	C	0.374723	0.688261	0.003515
283	N	0.356554	0.706089	0.00409
284	C	0.320556	0.68828	0.004223
285	N	0.30273	0.65228	0.004504
286	C	0.208615	0.80019	0.003864
287	C	0.22026	0.791366	0.297689
288	N	0.238234	0.773454	0.300281
289	C	0.246204	0.763218	0.00636
290	C	0.235309	0.771505	0.047409
291	C	0.216329	0.790002	0.045423
292	H	0.208144	0.796329	0.074443
293	C	0.264936	0.744506	0.006694
294	C	0.293301	0.718345	0.298967
295	C	0.301954	0.706942	0.005492
296	C	0.291567	0.714891	0.04674
297	H	0.215295	0.798145	0.266789
298	N	0.275369	0.736318	0.300933
299	C	0.273028	0.733853	0.048074
300	C	0.262491	0.74251	0.088897
301	C	0.243757	0.761203	0.088567
302	H	0.297762	0.706881	0.076002
303	H	0.300225	0.713202	0.268264
304	O	0.269296	0.732189	0.129074
305	H	0.291897	0.752046	0.139679
306	O	0.233239	0.768189	0.128478
307	H	0.252454	0.79152	0.138143
308	C	0.208675	0.910241	0.0042
309	C	0.220326	0.930635	0.297962
310	N	0.238293	0.966523	0.300435
311	C	0.246265	0.984806	0.006452
312	C	0.235386	0.965705	0.047561
313	C	0.216395	0.928222	0.045697
314	H	0.20821	0.913766	0.07476
315	C	0.264979	0.522251	0.00666
316	C	0.293303	0.576695	0.298752
317	C	0.301935	0.59683	0.005206
318	C	0.291572	0.578573	0.046515
319	H	0.215355	0.918832	0.267098
320	N	0.275393	0.540794	0.30084
321	C	0.27307	0.541077	0.047978
322	C	0.262575	0.521962	0.088864
323	C	0.243855	0.984536	0.088656
324	H	0.297769	0.592836	0.075732
325	H	0.300216	0.588702	0.268013
326	O	0.269404	0.539165	0.128987
327	H	0.292017	0.541938	0.139592
328	O	0.233384	0.967108	0.128622
329	H	0.252597	0.962983	0.138269
330	C	0.486557	0.743868	0.00664
331	C	0.432192	0.715588	0.298553
332	C	0.411983	0.706862	0.004946
333	C	0.430162	0.717166	0.046316
334	N	0.46809	0.733514	0.300759
335	C	0.467654	0.735698	0.047902
336	C	0.48669	0.746153	0.088848
337	H	0.415842	0.710909	0.075492
338	H	0.420245	0.708724	0.267776
339	O	0.469406	0.739263	0.128918
340	H	0.466735	0.716705	0.139578
341	C	0.190004	0.872992	0.335829
342	C	0.189977	0.818801	0.335424
343	N	0.207807	0.854798	0.335631
344	C	0.320538	0.634092	0.337192
345	N	0.356535	0.652264	0.33699
346	C	0.374723	0.688261	0.336849
347	N	0.356554	0.706089	0.337423
348	C	0.320556	0.68828	0.337554
349	N	0.30273	0.65228	0.337836
350	C	0.208615	0.80019	0.337199
351	C	0.22026	0.791366	0.631022
352	N	0.238234	0.773454	0.633614
353	C	0.246204	0.763218	0.339693
354	C	0.235309	0.771505	0.380742
355	C	0.216329	0.790002	0.378754
356	H	0.208144	0.796329	0.407775
357	C	0.264936	0.744506	0.340028
358	C	0.293301	0.718345	0.632301
359	C	0.301954	0.706942	0.338823
360	C	0.291567	0.714891	0.380073
361	H	0.215295	0.798145	0.600121
362	N	0.275369	0.736318	0.634268
363	C	0.273028	0.733853	0.381406
364	C	0.262491	0.74251	0.42223
365	C	0.243757	0.761203	0.421901
366	H	0.297762	0.706881	0.409336
367	H	0.300225	0.713202	0.601598
368	O	0.269296	0.732189	0.462406
369	H	0.291897	0.752046	0.473014
370	O	0.233239	0.768189	0.461812
371	H	0.252454	0.79152	0.471476
372	C	0.208675	0.910241	0.337534
373	C	0.220326	0.930635	0.631294
374	N	0.238293	0.966523	0.633768
375	C	0.246265	0.984806	0.339783
376	C	0.235386	0.965705	0.380893
377	C	0.216395	0.928222	0.379029
378	H	0.20821	0.913766	0.408094
379	C	0.264979	0.522251	0.339995
380	C	0.293303	0.576695	0.632086
381	C	0.301935	0.59683	0.338538
382	C	0.291572	0.578573	0.379849
383	H	0.215355	0.918832	0.60043
384	N	0.275393	0.540794	0.634174
385	C	0.27307	0.541077	0.381312
386	C	0.262575	0.521962	0.422196
387	C	0.243855	0.984536	0.421988
388	H	0.297769	0.592836	0.409064
389	H	0.300216	0.588702	0.601347
390	O	0.269404	0.539165	0.462319
391	H	0.292017	0.541938	0.472923
392	O	0.233384	0.967108	0.461956
393	H	0.252597	0.962983	0.471601
394	C	0.486557	0.743868	0.339975
395	C	0.432192	0.715588	0.631885
396	C	0.411983	0.706862	0.338279
397	C	0.430162	0.717166	0.37965
398	N	0.46809	0.733514	0.634094
399	C	0.467654	0.735698	0.381235
400	C	0.48669	0.746153	0.42218
401	H	0.415842	0.710909	0.408826
402	H	0.420245	0.708724	0.601108
403	O	0.469406	0.739263	0.462252
404	H	0.466735	0.716705	0.472913
405	C	0.190004	0.872992	0.669164
406	C	0.189977	0.818801	0.668757
407	N	0.207807	0.854798	0.668962
408	C	0.320538	0.634092	0.670523
409	N	0.356535	0.652264	0.670322
410	C	0.374723	0.688261	0.670181
411	N	0.356554	0.706089	0.670755
412	C	0.320556	0.68828	0.670889
413	N	0.30273	0.65228	0.671171
414	C	0.208615	0.80019	0.67053
415	C	0.22026	0.791366	0.964357
416	N	0.238234	0.773454	0.966948
417	C	0.246204	0.763218	0.673024
418	C	0.235309	0.771505	0.714076
419	C	0.216329	0.790002	0.712089
420	H	0.208144	0.796329	0.74111
421	C	0.264936	0.744506	0.67336
422	C	0.293301	0.718345	0.965632
423	C	0.301954	0.706942	0.672158
424	C	0.291567	0.714891	0.713405
425	H	0.215295	0.798145	0.933456
426	N	0.275369	0.736318	0.9676
427	C	0.273028	0.733853	0.714741
428	C	0.262491	0.74251	0.755565
429	C	0.243757	0.761203	0.755232
430	H	0.297762	0.706881	0.742667
431	H	0.300225	0.713202	0.93493
432	O	0.269296	0.732189	0.795741
433	H	0.291897	0.752046	0.806345
434	O	0.233239	0.768189	0.795143
435	H	0.252454	0.79152	0.804808
436	C	0.208675	0.910241	0.670866
437	C	0.220326	0.930635	0.964629
438	N	0.238293	0.966523	0.967099
439	C	0.246265	0.984806	0.673118
440	C	0.235386	0.965705	0.714227
441	C	0.216395	0.928222	0.712364
442	H	0.20821	0.913766	0.741425
443	C	0.264979	0.522251	0.673326
444	C	0.293303	0.576695	0.965418
445	C	0.301935	0.59683	0.671873
446	C	0.291572	0.578573	0.71318
447	H	0.215355	0.918832	0.933765
448	N	0.275393	0.540794	0.967506
449	C	0.27307	0.541077	0.714644
450	C	0.262575	0.521962	0.755531
451	C	0.243855	0.984536	0.755323
452	H	0.297769	0.592836	0.742399
453	H	0.300216	0.588702	0.934678
454	O	0.269404	0.539165	0.795653
455	H	0.292017	0.541938	0.806258
456	O	0.233384	0.967108	0.795287
457	H	0.252597	0.962983	0.804935
458	C	0.486557	0.743868	0.673306
459	C	0.432192	0.715588	0.965219
460	C	0.411983	0.706862	0.671611
461	C	0.430162	0.717166	0.712982
462	N	0.46809	0.733514	0.967425
463	C	0.467654	0.735698	0.71457
464	C	0.48669	0.746153	0.755514
465	H	0.415842	0.710909	0.742157
466	H	0.420245	0.708724	0.934443
467	O	0.469406	0.739263	0.795583
468	H	0.466735	0.716705	0.806245
469	C	0.690003	0.372991	0.002495
470	N	0.654011	0.354824	0.00324
471	C	0.635819	0.31883	0.002898
472	N	0.653984	0.300999	0.002767
473	C	0.689977	0.318801	0.002092
474	N	0.707808	0.354798	0.002297
475	C	0.820539	0.134092	0.003859
476	N	0.856534	0.152265	0.003657
477	C	0.874723	0.188262	0.003515
478	N	0.856553	0.206087	0.00409
479	C	0.820556	0.188278	0.004223
480	N	0.802729	0.152279	0.004504
481	C	0.708614	0.300189	0.003864
482	C	0.72026	0.291365	0.297689
483	N	0.738233	0.273453	0.300282
484	C	0.746204	0.263218	0.00636
485	C	0.735311	0.271506	0.047409
486	C	0.716329	0.290001	0.045423
487	H	0.708144	0.296328	0.074443
488	C	0.764936	0.244506	0.006694
489	C	0.793301	0.218343	0.298967
490	C	0.801954	0.206941	0.005492
491	C	0.791567	0.21489	0.04674
492	H	0.715297	0.298147	0.266789
493	N	0.775369	0.236319	0.300933
494	C	0.773027	0.233851	0.048074
495	C	0.762492	0.242509	0.088897
496	C	0.743756	0.261202	0.088567
497	H	0.797761	0.20688	0.076002
498	H	0.800225	0.213203	0.268264
499	O	0.769297	0.232188	0.129074
500	H	0.791897	0.252046	0.13968
501	O	0.733239	0.268188	0.128478
502	H	0.752454	0.291519	0.138143
503	C	0.708676	0.41024	0.0042
504	C	0.720326	0.430634	0.297962
505	N	0.738295	0.466525	0.300435
506	C	0.746265	0.484805	0.006452
507	C	0.735387	0.465704	0.047561
508	C	0.716393	0.428221	0.045697
509	H	0.708209	0.413765	0.07476
510	C	0.764979	0.02225	0.00666
511	C	0.793305	0.076696	0.298752
512	C	0.801935	0.096829	0.005206
513	C	0.791571	0.078572	0.046515
514	H	0.715356	0.418831	0.267098
515	N	0.775392	0.040793	0.30084
516	C	0.77307	0.041076	0.047978
517	C	0.762576	0.021963	0.088864
518	C	0.743855	0.484535	0.088656
519	H	0.797769	0.092835	0.075732
520	H	0.800216	0.088703	0.268013
521	O	0.769404	0.039166	0.128987
522	H	0.792018	0.041938	0.139592
523	O	0.733385	0.467108	0.128622
524	H	0.752598	0.462982	0.138269
525	C	0.598568	0.300192	0.004532
526	C	0.578246	0.288627	0.298227
527	N	0.542355	0.270648	0.300587
528	C	0.524002	0.2626	0.00655
529	C	0.543028	0.273416	0.047719
530	C	0.580512	0.292398	0.045976
531	H	0.594918	0.300533	0.075081
532	C	0.986557	0.243869	0.00664
533	C	0.932192	0.215588	0.298553
534	C	0.911985	0.206863	0.004946
535	C	0.930162	0.217165	0.046316
536	H	0.590107	0.293648	0.267397
537	N	0.968091	0.233514	0.300759
538	C	0.967653	0.235697	0.047902
539	C	0.986689	0.246152	0.088848
540	C	0.524117	0.264886	0.088756
541	H	0.915843	0.210909	0.075492
542	H	0.920244	0.208722	0.267776
543	O	0.969406	0.239263	0.128917
544	H	0.966734	0.216704	0.139578
545	O	0.541467	0.275325	0.128776
546	H	0.545651	0.256146	0.138392
547	C	0.690003	0.372991	0.335829
548	N	0.654011	0.354824	0.336574
549	C	0.635819	0.31883	0.336232
550	N	0.653984	0.300999	0.336101
551	C	0.689977	0.318801	0.335424
552	N	0.707808	0.354798	0.335631
553	C	0.820539	0.134092	0.337192
554	N	0.856534	0.152265	0.33699
555	C	0.874723	0.188262	0.336849
556	N	0.856553	0.206087	0.337423
557	C	0.820556	0.188278	0.337554
558	N	0.802729	0.152279	0.337836
559	C	0.708614	0.300189	0.337199
560	C	0.72026	0.291365	0.631022
561	N	0.738233	0.273453	0.633614
562	C	0.746204	0.263218	0.339693
563	C	0.735311	0.271506	0.380742
564	C	0.716329	0.290001	0.378754
565	H	0.708144	0.296328	0.407775
566	C	0.764936	0.244506	0.340028
567	C	0.793301	0.218343	0.632301
568	C	0.801954	0.206941	0.338823
569	C	0.791567	0.21489	0.380073
570	H	0.715297	0.298147	0.600121
571	N	0.775369	0.236319	0.634268
572	C	0.773027	0.233851	0.381406
573	C	0.762492	0.242509	0.42223
574	C	0.743756	0.261202	0.421901
575	H	0.797761	0.20688	0.409336
576	H	0.800225	0.213203	0.601598
577	O	0.769297	0.232188	0.462406
578	H	0.791897	0.252046	0.473014
579	O	0.733239	0.268188	0.461812
580	H	0.752454	0.291519	0.471476
581	C	0.708676	0.41024	0.337534
582	C	0.720326	0.430634	0.631294
583	N	0.738295	0.466525	0.633768
584	C	0.746265	0.484805	0.339783
585	C	0.735387	0.465704	0.380893
586	C	0.716393	0.428221	0.379029
587	H	0.708209	0.413765	0.408094
588	C	0.764979	0.02225	0.339995
589	C	0.793305	0.076696	0.632086
590	C	0.801935	0.096829	0.338538
591	C	0.791571	0.078572	0.379849
592	H	0.715356	0.418831	0.60043
593	N	0.775392	0.040793	0.634174
594	C	0.77307	0.041076	0.381312
595	C	0.762576	0.021963	0.422196
596	C	0.743855	0.484535	0.421988
597	H	0.797769	0.092835	0.409064
598	H	0.800216	0.088703	0.601347
599	O	0.769404	0.039166	0.462319
600	H	0.792018	0.041938	0.472923
601	O	0.733385	0.467108	0.461956
602	H	0.752598	0.462982	0.471601
603	C	0.598568	0.300192	0.337867
604	C	0.578246	0.288627	0.631559
605	N	0.542355	0.270648	0.633919
606	C	0.524002	0.2626	0.339884
607	C	0.543028	0.273416	0.38105
608	C	0.580512	0.292398	0.379308
609	H	0.594918	0.300533	0.408413
610	C	0.986557	0.243869	0.339975
611	C	0.932192	0.215588	0.631885
612	C	0.911985	0.206863	0.338279
613	C	0.930162	0.217165	0.37965
614	H	0.590107	0.293648	0.600729
615	N	0.968091	0.233514	0.634094
616	C	0.967653	0.235697	0.381235
617	C	0.986689	0.246152	0.42218
618	C	0.524117	0.264886	0.422089
619	H	0.915843	0.210909	0.408826
620	H	0.920244	0.208722	0.601108
621	O	0.969406	0.239263	0.462252
622	H	0.966734	0.216704	0.47291
623	O	0.541467	0.275325	0.462107
624	H	0.545651	0.256146	0.471725
625	C	0.690003	0.372991	0.669164
626	N	0.654011	0.354824	0.669906
627	C	0.635819	0.31883	0.669563
628	N	0.653984	0.300999	0.669432
629	C	0.689977	0.318801	0.668757
630	N	0.707808	0.354798	0.668962
631	C	0.820539	0.134092	0.670523
632	N	0.856534	0.152265	0.670322
633	C	0.874723	0.188262	0.670181
634	N	0.856553	0.206087	0.670755
635	C	0.820556	0.188278	0.670889
636	N	0.802729	0.152279	0.671171
637	C	0.708614	0.300189	0.67053
638	C	0.72026	0.291365	0.964357
639	N	0.738233	0.273453	0.966948
640	C	0.746204	0.263218	0.673027
641	C	0.735311	0.271506	0.714076
642	C	0.716329	0.290001	0.712089
643	H	0.708144	0.296328	0.74111
644	C	0.764936	0.244506	0.67336
645	C	0.793301	0.218343	0.965632
646	C	0.801954	0.206941	0.672158
647	C	0.791567	0.21489	0.713405
648	H	0.715297	0.298147	0.933456
649	N	0.775369	0.236319	0.9676
650	C	0.773027	0.233851	0.714741
651	C	0.762492	0.242509	0.755565
652	C	0.743756	0.261202	0.755232
653	H	0.797761	0.20688	0.742667
654	H	0.800225	0.213203	0.93493
655	O	0.769297	0.232188	0.795741
656	H	0.791897	0.252046	0.806345
657	O	0.733239	0.268188	0.795143
658	H	0.752454	0.291519	0.804808
659	C	0.708676	0.41024	0.670866
660	C	0.720326	0.430634	0.964629
661	N	0.738295	0.466525	0.967099
662	C	0.746265	0.484805	0.673118
663	C	0.735387	0.465704	0.714227
664	C	0.716393	0.428221	0.712364
665	H	0.708209	0.413765	0.741425
666	C	0.764979	0.02225	0.673326
667	C	0.793305	0.076696	0.965418
668	C	0.801935	0.096829	0.671873
669	C	0.791571	0.078572	0.71318
670	H	0.715356	0.418831	0.933765
671	N	0.775392	0.040793	0.967506
672	C	0.77307	0.041076	0.714644
673	C	0.762576	0.021963	0.755531
674	C	0.743855	0.484535	0.755323
675	H	0.797769	0.092835	0.742399
676	H	0.800216	0.088703	0.934678
677	O	0.769404	0.039166	0.795653
678	H	0.792018	0.041938	0.806258
679	O	0.733385	0.467108	0.795287
680	H	0.752598	0.462982	0.804935
681	C	0.598568	0.300192	0.671198
682	C	0.578246	0.288627	0.964894
683	N	0.542355	0.270648	0.967254
684	C	0.524002	0.2626	0.673215
685	C	0.543028	0.273416	0.714385
686	C	0.580512	0.292398	0.712643
687	H	0.594918	0.300533	0.741748
688	C	0.986557	0.243869	0.673306
689	C	0.932192	0.215588	0.965219
690	C	0.911985	0.206863	0.671611
691	C	0.930162	0.217165	0.712982
692	H	0.590107	0.293648	0.934064
693	N	0.968091	0.233514	0.967425
694	C	0.967653	0.235697	0.71457
695	C	0.986689	0.246152	0.755514
696	C	0.524117	0.264886	0.755424
697	H	0.915843	0.210909	0.742157
698	H	0.920244	0.208722	0.934443
699	O	0.969406	0.239263	0.795583
700	H	0.966734	0.216704	0.806245
701	O	0.541467	0.275325	0.795442
702	H	0.545651	0.256146	0.80506
703	C	0.690003	0.872992	0.002495
704	N	0.65401	0.854825	0.00324
705	C	0.635817	0.818828	0.002898
706	N	0.653985	0.801	0.002767
707	C	0.689977	0.818801	0.002092
708	N	0.707806	0.854798	0.002297
709	C	0.820537	0.634092	0.003859
710	N	0.856534	0.652264	0.003657
711	C	0.874723	0.688261	0.003515
712	N	0.856554	0.706089	0.00409
713	C	0.820557	0.68828	0.004223
714	N	0.802729	0.65228	0.004504
715	C	0.708614	0.80019	0.003864
716	C	0.720261	0.791366	0.297689
717	N	0.738234	0.773454	0.300281
718	C	0.746205	0.763218	0.00636
719	C	0.73531	0.771505	0.047409
720	C	0.716329	0.790002	0.045423
721	H	0.708145	0.796329	0.074443
722	C	0.764936	0.744506	0.006694
723	C	0.793302	0.718345	0.298967
724	C	0.801954	0.706942	0.005492
725	C	0.791566	0.714891	0.04674
726	H	0.715293	0.798145	0.266789
727	N	0.775368	0.736318	0.300933
728	C	0.773028	0.733853	0.048074
729	C	0.76249	0.74251	0.088897
730	C	0.743757	0.761203	0.088567
731	H	0.797761	0.706881	0.076002
732	H	0.800225	0.713202	0.268264
733	O	0.769297	0.732189	0.129074
734	H	0.791896	0.752046	0.139679
735	O	0.733239	0.768189	0.128478
736	H	0.752454	0.79152	0.138143
737	C	0.708674	0.910241	0.0042
738	C	0.720325	0.930635	0.297962
739	N	0.738294	0.966523	0.300435
740	C	0.746266	0.984806	0.006452
741	C	0.735387	0.965705	0.047561
742	C	0.716394	0.928222	0.045697
743	H	0.708209	0.913766	0.07476
744	C	0.764979	0.522251	0.00666
745	C	0.793302	0.576695	0.298752
746	C	0.801936	0.59683	0.005206
747	C	0.791571	0.578573	0.046515
748	H	0.715356	0.918832	0.267098
749	N	0.775392	0.540794	0.30084
750	C	0.773069	0.541077	0.047978
751	C	0.762573	0.521962	0.088864
752	C	0.743853	0.984536	0.088656
753	H	0.797769	0.592836	0.075732
754	H	0.800216	0.588702	0.268013
755	O	0.769404	0.539165	0.128987
756	H	0.792016	0.541938	0.139592
757	O	0.733385	0.967108	0.128622
758	H	0.752596	0.962983	0.138269
759	C	0.598567	0.80019	0.004532
760	C	0.578247	0.788628	0.298227
761	N	0.542355	0.770649	0.300587
762	C	0.524001	0.762601	0.006551
763	C	0.543028	0.773417	0.047719
764	C	0.580513	0.792399	0.045976
765	H	0.594918	0.800534	0.075081
766	C	0.986556	0.743868	0.00664
767	C	0.932192	0.715588	0.298553
768	C	0.911982	0.706862	0.004946
769	C	0.930161	0.717166	0.046316
770	H	0.590108	0.793649	0.267397
771	N	0.968091	0.733514	0.300759
772	C	0.967654	0.735698	0.047902
773	C	0.98669	0.746153	0.088848
774	C	0.524118	0.764887	0.088756
775	H	0.915842	0.710909	0.075492
776	H	0.920245	0.708724	0.267776
777	O	0.969406	0.739263	0.128918
778	H	0.966735	0.716705	0.139578
779	O	0.541467	0.775326	0.128776
780	H	0.545651	0.756145	0.138392
781	C	0.690003	0.872992	0.335829
782	N	0.65401	0.854825	0.336574
783	C	0.635817	0.818828	0.336232
784	N	0.653985	0.801	0.336101
785	C	0.689977	0.818801	0.335424
786	N	0.707806	0.854798	0.335631
787	C	0.820537	0.634092	0.337192
788	N	0.856534	0.652264	0.33699
789	C	0.874723	0.688261	0.336849
790	N	0.856554	0.706089	0.337423
791	C	0.820557	0.68828	0.337554
792	N	0.802729	0.65228	0.337836
793	C	0.708614	0.80019	0.337199
794	C	0.720261	0.791366	0.631022
795	N	0.738234	0.773454	0.633614
796	C	0.746205	0.763218	0.339693
797	C	0.73531	0.771505	0.380742
798	C	0.716329	0.790002	0.378754
799	H	0.708145	0.796329	0.407775
800	C	0.764936	0.744506	0.340028
801	C	0.793302	0.718345	0.632301
802	C	0.801954	0.706942	0.338823
803	C	0.791566	0.714891	0.380073
804	H	0.715293	0.798145	0.600121
805	N	0.775368	0.736318	0.634268
806	C	0.773028	0.733853	0.381406
807	C	0.76249	0.74251	0.42223
808	C	0.743757	0.761203	0.421901
809	H	0.797761	0.706881	0.409336
810	H	0.800225	0.713202	0.601598
811	O	0.769297	0.732189	0.462406
812	H	0.791896	0.752046	0.473014
813	O	0.733239	0.768189	0.461812
814	H	0.752454	0.79152	0.471476
815	C	0.708674	0.910241	0.337534
816	C	0.720325	0.930635	0.631294
817	N	0.738294	0.966523	0.633768
818	C	0.746266	0.984806	0.339783
819	C	0.735387	0.965705	0.380893
820	C	0.716394	0.928222	0.379029
821	H	0.708209	0.913766	0.408094
822	C	0.764979	0.522251	0.339995
823	C	0.793302	0.576695	0.632086
824	C	0.801936	0.59683	0.338538
825	C	0.791571	0.578573	0.379849
826	H	0.715356	0.918832	0.60043
827	N	0.775392	0.540794	0.634174
828	C	0.773069	0.541077	0.381312
829	C	0.762573	0.521962	0.422196
830	C	0.743853	0.984536	0.421988
831	H	0.797769	0.592836	0.409064
832	H	0.800216	0.588702	0.601347
833	O	0.769404	0.539165	0.462319
834	H	0.792016	0.541938	0.472923
835	O	0.733385	0.967108	0.461956
836	H	0.752596	0.962983	0.471601
837	C	0.598567	0.80019	0.337867
838	C	0.578247	0.788628	0.631559
839	N	0.542355	0.770649	0.633919
840	C	0.524001	0.762601	0.339884
841	C	0.543028	0.773417	0.381054
842	C	0.580513	0.792399	0.379308
843	H	0.594918	0.800534	0.408416
844	C	0.986556	0.743868	0.339975
845	C	0.932192	0.715588	0.631885
846	C	0.911982	0.706862	0.338279
847	C	0.930161	0.717166	0.37965
848	H	0.590108	0.793649	0.600729
849	N	0.968091	0.733514	0.634094
850	C	0.967654	0.735698	0.381235
851	C	0.98669	0.746153	0.42218
852	C	0.524118	0.764887	0.422089
853	H	0.915842	0.710909	0.408826
854	H	0.920245	0.708724	0.601108
855	O	0.969406	0.739263	0.462252
856	H	0.966735	0.716705	0.472913
857	O	0.541467	0.775326	0.462111
858	H	0.545651	0.756145	0.471725
859	C	0.690003	0.872992	0.669164
860	N	0.65401	0.854825	0.669906
861	C	0.635817	0.818828	0.669563
862	N	0.653985	0.801	0.669432
863	C	0.689977	0.818801	0.668757
864	N	0.707806	0.854798	0.668962
865	C	0.820537	0.634092	0.670523
866	N	0.856534	0.652264	0.670322
867	C	0.874723	0.688261	0.670181
868	N	0.856554	0.706089	0.670755
869	C	0.820557	0.68828	0.670889
870	N	0.802729	0.65228	0.671171
871	C	0.708614	0.80019	0.67053
872	C	0.720261	0.791366	0.964357
873	N	0.738234	0.773454	0.966948
874	C	0.746205	0.763218	0.673024
875	C	0.73531	0.771505	0.714076
876	C	0.716329	0.790002	0.712089
877	H	0.708145	0.796329	0.74111
878	C	0.764936	0.744506	0.67336
879	C	0.793302	0.718345	0.965632
880	C	0.801954	0.706942	0.672158
881	C	0.791566	0.714891	0.713405
882	H	0.715293	0.798145	0.933456
883	N	0.775368	0.736318	0.9676
884	C	0.773028	0.733853	0.714741
885	C	0.76249	0.74251	0.755565
886	C	0.743757	0.761203	0.755232
887	H	0.797761	0.706881	0.742667
888	H	0.800225	0.713202	0.93493
889	O	0.769297	0.732189	0.795741
890	H	0.791896	0.752046	0.806345
891	O	0.733239	0.768189	0.795143
892	H	0.752454	0.79152	0.804808
893	C	0.708674	0.910241	0.670866
894	C	0.720325	0.930635	0.964629
895	N	0.738294	0.966523	0.967099
896	C	0.746266	0.984806	0.673118
897	C	0.735387	0.965705	0.714227
898	C	0.716394	0.928222	0.712364
899	H	0.708209	0.913766	0.741425
900	C	0.764979	0.522251	0.673326
901	C	0.793302	0.576695	0.965418
902	C	0.801936	0.59683	0.671873
903	C	0.791571	0.578573	0.71318
904	H	0.715356	0.918832	0.933765
905	N	0.775392	0.540794	0.967506
906	C	0.773069	0.541077	0.714644
907	C	0.762573	0.521962	0.755531
908	C	0.743853	0.984536	0.755323
909	H	0.797769	0.592836	0.742399
910	H	0.800216	0.588702	0.934678
911	O	0.769404	0.539165	0.795653
912	H	0.792016	0.541938	0.806258
913	O	0.733385	0.967108	0.795287
914	H	0.752596	0.962983	0.804935
915	C	0.598567	0.80019	0.671198
916	C	0.578247	0.788628	0.964894
917	N	0.542355	0.770649	0.967254
918	C	0.524001	0.762601	0.673215
919	C	0.543028	0.773417	0.714385
920	C	0.580513	0.792399	0.712643
921	H	0.594918	0.800534	0.741748
922	C	0.986556	0.743868	0.673306
923	C	0.932192	0.715588	0.965219
924	C	0.911982	0.706862	0.671611
925	C	0.930161	0.717166	0.712982
926	H	0.590108	0.793649	0.934064
927	N	0.968091	0.733514	0.967425
928	C	0.967654	0.735698	0.71457
929	C	0.98669	0.746153	0.755514
930	C	0.524118	0.764887	0.755424
931	H	0.915842	0.710909	0.742157
932	H	0.920245	0.708724	0.934443
933	O	0.969406	0.739263	0.795583
934	H	0.966735	0.716705	0.806245
935	O	0.541467	0.775326	0.795442
936	H	0.545651	0.756145	0.80506
